                                   MODFLOW 6
                U.S. GEOLOGICAL SURVEY MODULAR HYDROLOGIC MODEL
                          GROUNDWATER FLOW MODEL (GWF)
                   VERSION 6.3.0 release candidate 07/30/2021
                               ***DEVELOP MODE***

   MODFLOW 6 compiled Dec 29 2021 09:30:50 with Intel(R) Fortran Intel(R) 64
   Compiler for applications running on Intel(R) 64, Version 19.1.3.301 Build
                                20200925_000000

This software is preliminary or provisional and is subject to 
revision. It is being provided to meet the need for timely best 
science. The software has not received final approval by the U.S. 
Geological Survey (USGS). No warranty, expressed or implied, is made 
by the USGS or the U.S. Government as to the functionality of the 
software and related material nor shall the fact of release 
constitute any such warranty. The software is provided on the 
condition that neither the USGS nor the U.S. Government shall be held 
liable for any damages resulting from the authorized or unauthorized 
use of the software.


As a work of the United States Government, this USGS product is 
in the public domain within the United States. You can copy, 
modify, distribute, and perform the work, even for commercial 
purposes, all without asking permission. Additionally, USGS 
waives copyright and related rights in the work worldwide 
through CC0 1.0 Universal Public Domain Dedication 
(https://creativecommons.org/publicdomain/zero/1.0/).

The following GNU Lesser General Public License (LGPL) libraries
are used in this USGS product:

    SPARSKIT version 2.0
      ilut, luson, and qsplit 
      (https://www-users.cse.umn.edu/~saad/software/SPARSKIT/)

    RCM - Reverse Cuthill McKee Ordering
      (https://people.math.sc.edu/Burkardt/f_src/rcm/rcm.html)

    BLAS - Basic Linear Algebra Subprograms Level 1
      (https://people.math.sc.edu/Burkardt/f_src/blas1_d/blas1_d.html)

    SPARSEKIT - Sparse Matrix Utility Package
      amux, dperm, dvperm, rperm, and cperm
      (https://people.sc.fsu.edu/~jburkardt/f77_src/sparsekit/sparsekit.html)

The following BSD-3 License libraries are used in this USGS product:

    Modern Fortran DAG Library
      Copyright (c) 2018, Jacob Williams
      All rights reserved.
      (https://github.com/jacobwilliams/daglib)

MODFLOW 6 compiler options: -I./obj_temp -O2 -no-heap-arrays -fpe0 -traceback
-fpp -module ./mod_temp/ -c -o ./obj_temp/compilerversion.o

System command used to initiate simulation:
./mf6

MODFLOW was compiled using uniform precision.

Real Variables
  KIND: 8
  TINY (smallest non-zero value):    2.225074-308
  HUGE (largest value):    1.797693+308
  PRECISION: 15
  BIT SIZE: 64

Integer Variables
  KIND: 4
  HUGE (largest value): 2147483647
  BIT SIZE: 32

Long Integer Variables
  KIND: 8
  HUGE (largest value): 9223372036854775807
  BIT SIZE: 64

Logical Variables
  KIND: 4
  BIT SIZE: 32
 

 OPENED freyberg6.rcha
 FILE TYPE:RCH6                   UNIT 1005   STATUS:OLD                 
 FORMAT:FORMATTED              ACCESS:SEQUENTIAL          
 ACTION:READ                


 OPENED freyberg6.dis
 FILE TYPE:DIS6                   UNIT 1006   STATUS:OLD                 
 FORMAT:FORMATTED              ACCESS:SEQUENTIAL          
 ACTION:READ                


 OPENED freyberg6.ic
 FILE TYPE:IC6                    UNIT 1007   STATUS:OLD                 
 FORMAT:FORMATTED              ACCESS:SEQUENTIAL          
 ACTION:READ                


 OPENED freyberg6.npf
 FILE TYPE:NPF6                   UNIT 1008   STATUS:OLD                 
 FORMAT:FORMATTED              ACCESS:SEQUENTIAL          
 ACTION:READ                


 OPENED freyberg6.sto
 FILE TYPE:STO6                   UNIT 1009   STATUS:OLD                 
 FORMAT:FORMATTED              ACCESS:SEQUENTIAL          
 ACTION:READ                


 OPENED freyberg6.oc
 FILE TYPE:OC6                    UNIT 1010   STATUS:OLD                 
 FORMAT:FORMATTED              ACCESS:SEQUENTIAL          
 ACTION:READ                


 OPENED freyberg6.ghb
 FILE TYPE:GHB6                   UNIT 1011   STATUS:OLD                 
 FORMAT:FORMATTED              ACCESS:SEQUENTIAL          
 ACTION:READ                


 OPENED freyberg6.sfr
 FILE TYPE:SFR6                   UNIT 1012   STATUS:OLD                 
 FORMAT:FORMATTED              ACCESS:SEQUENTIAL          
 ACTION:READ                


 OPENED freyberg6.obs
 FILE TYPE:OBS6                   UNIT 1013   STATUS:OLD                 
 FORMAT:FORMATTED              ACCESS:SEQUENTIAL          
 ACTION:READ                


 OPENED freyberg6.wel
 FILE TYPE:WEL6                   UNIT 1014   STATUS:OLD                 
 FORMAT:FORMATTED              ACCESS:SEQUENTIAL          
 ACTION:READ                

 NAMEFILE OPTIONS:
    NEWTON-RAPHSON method enabled for the model.

 DIS -- STRUCTURED GRID DISCRETIZATION PACKAGE, VERSION 2 : 3/27/2014 - INPUT READ FROM UNIT 1006


 # File generated by Flopy version 3.3.6 on 10/09/2023 at 08:20:51.
 PROCESSING DISCRETIZATION OPTIONS
    MODEL LENGTH UNIT IS METERS
 END OF DISCRETIZATION OPTIONS
 PROCESSING DISCRETIZATION DIMENSIONS
    NLAY =       3
    NROW =     120
    NCOL =      60
 END OF DISCRETIZATION DIMENSIONS
 PROCESSING GRIDDATA

 OPENED freyberg6.dis_delr.txt
 FILE TYPE:OPEN/CLOSE   UNIT 1016   STATUS:OLD                 
 FORMAT:FORMATTED              ACCESS:SEQUENTIAL          
 ACTION:READ                


 OPENED freyberg6.dis_delc.txt
 FILE TYPE:OPEN/CLOSE   UNIT 1017   STATUS:OLD                 
 FORMAT:FORMATTED              ACCESS:SEQUENTIAL          
 ACTION:READ                


 OPENED freyberg6.dis_top.txt
 FILE TYPE:OPEN/CLOSE   UNIT 1018   STATUS:OLD                 
 FORMAT:FORMATTED              ACCESS:SEQUENTIAL          
 ACTION:READ                


 OPENED freyberg6.dis_botm_layer1.txt
 FILE TYPE:OPEN/CLOSE   UNIT 1019   STATUS:OLD                 
 FORMAT:FORMATTED              ACCESS:SEQUENTIAL          
 ACTION:READ                


 OPENED freyberg6.dis_botm_layer2.txt
 FILE TYPE:OPEN/CLOSE   UNIT 1020   STATUS:OLD                 
 FORMAT:FORMATTED              ACCESS:SEQUENTIAL          
 ACTION:READ                


 OPENED freyberg6.dis_botm_layer3.txt
 FILE TYPE:OPEN/CLOSE   UNIT 1021   STATUS:OLD                 
 FORMAT:FORMATTED              ACCESS:SEQUENTIAL          
 ACTION:READ                


 OPENED freyberg6.dis_idomain_layer1.txt
 FILE TYPE:OPEN/CLOSE   UNIT 1022   STATUS:OLD                 
 FORMAT:FORMATTED              ACCESS:SEQUENTIAL          
 ACTION:READ                


 OPENED freyberg6.dis_idomain_layer2.txt
 FILE TYPE:OPEN/CLOSE   UNIT 1023   STATUS:OLD                 
 FORMAT:FORMATTED              ACCESS:SEQUENTIAL          
 ACTION:READ                


 OPENED freyberg6.dis_idomain_layer3.txt
 FILE TYPE:OPEN/CLOSE   UNIT 1024   STATUS:OLD                 
 FORMAT:FORMATTED              ACCESS:SEQUENTIAL          
 ACTION:READ                

 END PROCESSING GRIDDATA

 THE SPECIFIED IDOMAIN RESULTS IN A REDUCED NUMBER OF CELLS.
 NUMBER OF USER NODES: 21600
 NUMBER OF NODES IN SOLUTION: 19062



 NPF -- NODE PROPERTY FLOW PACKAGE, VERSION 1, 3/30/2015 INPUT READ FROM UNIT 1008


 # File generated by Flopy version 3.3.6 on 10/09/2023 at 08:20:51.
 PROCESSING NPF OPTIONS
    CELL-BY-CELL FLOW INFORMATION WILL BE SAVED TO BINARY FILE WHENEVER ICBCFL IS NOT ZERO.
 END OF NPF OPTIONS

 WEL   -- WEL PACKAGE, VERSION 8, 2/22/2014 INPUT READ FROM UNIT 1014
 # File generated by Flopy version 3.3.6 on 10/09/2023 at 08:20:51.

 PROCESSING WEL OPTIONS
 END OF WEL OPTIONS

 PROCESSING WEL DIMENSIONS
    MAXBOUND =       6
 END OF WEL DIMENSIONS

 GHB   -- GHB PACKAGE, VERSION 8, 2/22/2014 INPUT READ FROM UNIT 1011
 # File generated by Flopy version 3.3.6 on 10/09/2023 at 08:20:51.

 PROCESSING GHB OPTIONS
    LISTS OF GHB CELLS WILL BE PRINTED.
    GHB FLOWS WILL BE PRINTED TO LISTING FILE.
    FLOWS WILL BE SAVED TO BUDGET FILE SPECIFIED IN OUTPUT CONTROL
 END OF GHB OPTIONS

 PROCESSING GHB DIMENSIONS
    MAXBOUND =      33
 END OF GHB DIMENSIONS

 RCH   -- RCH PACKAGE, VERSION 8, 2/22/2014 INPUT READ FROM UNIT 1005
 # File generated by Flopy version 3.3.6 on 10/09/2023 at 08:20:51.

 PROCESSING RCH OPTIONS
    RECHARGE INPUT WILL BE READ AS ARRAY(S).
 END OF RCHA OPTIONS

 SFR   -- SFR PACKAGE, VERSION 8, 2/22/2014 INPUT READ FROM UNIT 1012
 # File generated by Flopy version 3.3.6 on 10/09/2023 at 08:20:51.

 PROCESSING SFR OPTIONS
    SFR BOUNDARIES HAVE NAMES IN LAST COLUMN.
    LISTS OF SFR CELLS WILL BE PRINTED.
    FLOWS WILL BE SAVED TO BUDGET FILE SPECIFIED IN OUTPUT CONTROL

 OPENED sfr.obs
 FILE TYPE:OBS   UNIT 1025   STATUS:OLD                 
 FORMAT:FORMATTED              ACCESS:SEQUENTIAL          
 ACTION:READ                

    MAXIMUM DEPTH CHANGE VALUE (.1000000000000000E-03) SPECIFIED.
    UNIT CONVERSION VALUE (86400.00000000000) SPECIFIED.
 END OF SFR OPTIONS

 PROCESSING SFR DIMENSIONS
    NREACHES = 120
 END OF SFR DIMENSIONS

 OPENED freyberg6.sfr_packagedata.txt
 FILE TYPE:OPEN/CLOSE   UNIT 1026   STATUS:OLD                 
 FORMAT:FORMATTED              ACCESS:SEQUENTIAL          
 ACTION:READ                


 PROCESSING SFR PACKAGEDATA
 END OF SFR PACKAGEDATA

 OPENED freyberg6.sfr_connectiondata.txt
 FILE TYPE:OPEN/CLOSE   UNIT 1027   STATUS:OLD                 
 FORMAT:FORMATTED              ACCESS:SEQUENTIAL          
 ACTION:READ                


 PROCESSING SFR CONNECTIONDATA
 END OF SFR CONNECTIONDATA

 IC -- INITIAL CONDITIONS PACKAGE, VERSION 8, 3/28/2015 INPUT READ FROM UNIT 1007
 # File generated by Flopy version 3.3.6 on 10/09/2023 at 08:20:51.
 PROCESSING GRIDDATA

 OPENED freyberg6.ic_strt_layer1.txt
 FILE TYPE:OPEN/CLOSE   UNIT 1028   STATUS:OLD                 
 FORMAT:FORMATTED              ACCESS:SEQUENTIAL          
 ACTION:READ                


 OPENED freyberg6.ic_strt_layer2.txt
 FILE TYPE:OPEN/CLOSE   UNIT 1029   STATUS:OLD                 
 FORMAT:FORMATTED              ACCESS:SEQUENTIAL          
 ACTION:READ                


 OPENED freyberg6.ic_strt_layer3.txt
 FILE TYPE:OPEN/CLOSE   UNIT 1030   STATUS:OLD                 
 FORMAT:FORMATTED              ACCESS:SEQUENTIAL          
 ACTION:READ                

 END PROCESSING GRIDDATA
 PROCESSING GRIDDATA

 OPENED freyberg6.npf_icelltype_layer1.txt
 FILE TYPE:OPEN/CLOSE   UNIT 1031   STATUS:OLD                 
 FORMAT:FORMATTED              ACCESS:SEQUENTIAL          
 ACTION:READ                


 OPENED freyberg6.npf_icelltype_layer2.txt
 FILE TYPE:OPEN/CLOSE   UNIT 1032   STATUS:OLD                 
 FORMAT:FORMATTED              ACCESS:SEQUENTIAL          
 ACTION:READ                


 OPENED freyberg6.npf_icelltype_layer3.txt
 FILE TYPE:OPEN/CLOSE   UNIT 1033   STATUS:OLD                 
 FORMAT:FORMATTED              ACCESS:SEQUENTIAL          
 ACTION:READ                


 OPENED freyberg6.npf_k_layer1.txt
 FILE TYPE:OPEN/CLOSE   UNIT 1034   STATUS:OLD                 
 FORMAT:FORMATTED              ACCESS:SEQUENTIAL          
 ACTION:READ                


 OPENED freyberg6.npf_k_layer2.txt
 FILE TYPE:OPEN/CLOSE   UNIT 1035   STATUS:OLD                 
 FORMAT:FORMATTED              ACCESS:SEQUENTIAL          
 ACTION:READ                


 OPENED freyberg6.npf_k_layer3.txt
 FILE TYPE:OPEN/CLOSE   UNIT 1036   STATUS:OLD                 
 FORMAT:FORMATTED              ACCESS:SEQUENTIAL          
 ACTION:READ                


 OPENED freyberg6.npf_k33_layer1.txt
 FILE TYPE:OPEN/CLOSE   UNIT 1037   STATUS:OLD                 
 FORMAT:FORMATTED              ACCESS:SEQUENTIAL          
 ACTION:READ                


 OPENED freyberg6.npf_k33_layer2.txt
 FILE TYPE:OPEN/CLOSE   UNIT 1038   STATUS:OLD                 
 FORMAT:FORMATTED              ACCESS:SEQUENTIAL          
 ACTION:READ                


 OPENED freyberg6.npf_k33_layer3.txt
 FILE TYPE:OPEN/CLOSE   UNIT 1039   STATUS:OLD                 
 FORMAT:FORMATTED              ACCESS:SEQUENTIAL          
 ACTION:READ                

 K22 not provided.  Assuming K22 = K.
 END PROCESSING GRIDDATA

 STO -- STORAGE PACKAGE, VERSION 1, 5/19/2014 INPUT READ FROM UNIT 1009


 # File generated by Flopy version 3.3.6 on 10/09/2023 at 08:20:51.
 PROCESSING STORAGE OPTIONS
 END OF STORAGE OPTIONS
 PROCESSING GRIDDATA

 OPENED freyberg6.sto_iconvert_layer1.txt
 FILE TYPE:OPEN/CLOSE   UNIT 1040   STATUS:OLD                 
 FORMAT:FORMATTED              ACCESS:SEQUENTIAL          
 ACTION:READ                


 OPENED freyberg6.sto_iconvert_layer2.txt
 FILE TYPE:OPEN/CLOSE   UNIT 1041   STATUS:OLD                 
 FORMAT:FORMATTED              ACCESS:SEQUENTIAL          
 ACTION:READ                


 OPENED freyberg6.sto_iconvert_layer3.txt
 FILE TYPE:OPEN/CLOSE   UNIT 1042   STATUS:OLD                 
 FORMAT:FORMATTED              ACCESS:SEQUENTIAL          
 ACTION:READ                


 OPENED freyberg6.sto_ss_layer1.txt
 FILE TYPE:OPEN/CLOSE   UNIT 1043   STATUS:OLD                 
 FORMAT:FORMATTED              ACCESS:SEQUENTIAL          
 ACTION:READ                


 OPENED freyberg6.sto_ss_layer2.txt
 FILE TYPE:OPEN/CLOSE   UNIT 1044   STATUS:OLD                 
 FORMAT:FORMATTED              ACCESS:SEQUENTIAL          
 ACTION:READ                


 OPENED freyberg6.sto_ss_layer3.txt
 FILE TYPE:OPEN/CLOSE   UNIT 1045   STATUS:OLD                 
 FORMAT:FORMATTED              ACCESS:SEQUENTIAL          
 ACTION:READ                


 OPENED freyberg6.sto_sy_layer1.txt
 FILE TYPE:OPEN/CLOSE   UNIT 1046   STATUS:OLD                 
 FORMAT:FORMATTED              ACCESS:SEQUENTIAL          
 ACTION:READ                


 OPENED freyberg6.sto_sy_layer2.txt
 FILE TYPE:OPEN/CLOSE   UNIT 1047   STATUS:OLD                 
 FORMAT:FORMATTED              ACCESS:SEQUENTIAL          
 ACTION:READ                


 OPENED freyberg6.sto_sy_layer3.txt
 FILE TYPE:OPEN/CLOSE   UNIT 1048   STATUS:OLD                 
 FORMAT:FORMATTED              ACCESS:SEQUENTIAL          
 ACTION:READ                

 END PROCESSING GRIDDATA

The observation utility is active for "FREYBERG6"
 # File generated by Flopy version 3.3.6 on 10/09/2023 at 08:20:51.

Processing observation options:

Text output number of digits of precision set to: 10


 OPENED freyberg6.obs_continuous_heads.csv.txt
 FILE TYPE:OPEN/CLOSE   UNIT 1049   STATUS:OLD                 
 FORMAT:FORMATTED              ACCESS:SEQUENTIAL          
 ACTION:READ                

 # trgw-2-11-26  HEAD  3 12 27
 # trgw-0-11-26  HEAD  1 12 27
    BINARY GRID INFORMATION WILL BE WRITTEN TO:
      UNIT NUMBER: 1051
      FILE NAME: /Users/JWhite/Dev/condreals/flexible-conditioning/freyberg/freyberg_monthly/freyberg6.dis.grb

 OPENED /Users/JWhite/Dev/condreals/flexible-conditioning/freyberg/freyberg_monthly/freyberg6.dis.grb
 FILE TYPE:DATA(BINARY)   UNIT 1051   STATUS:REPLACE             
 FORMAT:UNFORMATTED            ACCESS:STREAM              
 ACTION:READWRITE           

      THE LAST TIME STEP WILL BE PRINTED
      THE LAST TIME STEP WILL BE PRINTED
 # File generated by Flopy version 3.3.6 on 10/09/2023 at 08:20:51.

 PROCESSING OC OPTIONS

    BUDGET INFORMATION WILL BE WRITTEN TO:
      UNIT NUMBER: 1052
      FILE NAME: freyberg6_freyberg.cbc

 OPENED freyberg6_freyberg.cbc
 FILE TYPE:DATA(BINARY)   UNIT 1052   STATUS:REPLACE             
 FORMAT:UNFORMATTED            ACCESS:STREAM              
 ACTION:READWRITE           

    HEAD INFORMATION WILL BE WRITTEN TO:
      UNIT NUMBER: 1053
      FILE NAME: freyberg6_freyberg.hds

 OPENED freyberg6_freyberg.hds
 FILE TYPE:DATA(BINARY)   UNIT 1053   STATUS:REPLACE             
 FORMAT:UNFORMATTED            ACCESS:STREAM              
 ACTION:READWRITE           

 END OF OC OPTIONS

The observation utility is active for "SFR_1"
 # File generated by Flopy version 3.3.6 on 10/09/2023 at 08:20:51.

Processing observation options:



 OPENED sfr.obs_continuous_sfr.csv.txt
 FILE TYPE:OPEN/CLOSE   UNIT 1054   STATUS:OLD                 
 FORMAT:FORMATTED              ACCESS:SEQUENTIAL          
 ACTION:READ                


 SFR PACKAGE (SFR_1) STATIC REACH DATA
 ---------------------------------------------------------------------------------------------------------------------------------------
                                                                                                                              UPSTREAM  
   NUMBER   CELLID                  LENGTH       WIDTH        SLOPE         TOP       THICKNESS        HK       ROUGHNESS     FRACTION  
 ---------------------------------------------------------------------------------------------------------------------------------------
     1      (1,1,47)              83.333       5.0000       5.00000E-05  34.000       1.0000       0.10000      3.00000E-02  1.0000     
     2      (1,2,47)              83.333       5.0000       5.00000E-05  33.996       1.0000       0.10000      3.00000E-02  1.0000     
     3      (1,3,47)              83.333       5.0000       5.00000E-05  33.992       1.0000       0.10000      3.00000E-02  1.0000     
     4      (1,4,47)              83.333       5.0000       5.00000E-05  33.987       1.0000       0.10000      3.00000E-02  1.0000     
     5      (1,5,47)              83.333       5.0000       5.00000E-05  33.983       1.0000       0.10000      3.00000E-02  1.0000     
     6      (1,6,47)              83.333       5.0000       5.00000E-05  33.979       1.0000       0.10000      3.00000E-02  1.0000     
     7      (1,7,47)              83.333       5.0000       5.00000E-05  33.975       1.0000       0.10000      3.00000E-02  1.0000     
     8      (1,8,47)              83.333       5.0000       5.00000E-05  33.971       1.0000       0.10000      3.00000E-02  1.0000     
     9      (1,9,47)              83.333       5.0000       5.00000E-05  33.966       1.0000       0.10000      3.00000E-02  1.0000     
     10     (1,10,47)             83.333       5.0000       5.00000E-05  33.962       1.0000       0.10000      3.00000E-02  1.0000     
     11     (1,11,47)             83.333       5.0000       5.00000E-05  33.958       1.0000       0.10000      3.00000E-02  1.0000     
     12     (1,12,47)             83.333       5.0000       5.00000E-05  33.954       1.0000       0.10000      3.00000E-02  1.0000     
     13     (1,13,47)             83.333       5.0000       5.00000E-05  33.950       1.0000       0.10000      3.00000E-02  1.0000     
     14     (1,14,47)             83.333       5.0000       5.00000E-05  33.945       1.0000       0.10000      3.00000E-02  1.0000     
     15     (1,15,47)             83.333       5.0000       5.00000E-05  33.941       1.0000       0.10000      3.00000E-02  1.0000     
     16     (1,16,47)             83.333       5.0000       5.00000E-05  33.937       1.0000       0.10000      3.00000E-02  1.0000     
     17     (1,17,47)             83.333       5.0000       5.00000E-05  33.933       1.0000       0.10000      3.00000E-02  1.0000     
     18     (1,18,47)             83.333       5.0000       5.00000E-05  33.929       1.0000       0.10000      3.00000E-02  1.0000     
     19     (1,19,47)             83.333       5.0000       5.00000E-05  33.924       1.0000       0.10000      3.00000E-02  1.0000     
     20     (1,20,47)             83.333       5.0000       5.00000E-05  33.920       1.0000       0.10000      3.00000E-02  1.0000     
     21     (1,21,47)             83.333       5.0000       5.00000E-05  33.916       1.0000       0.10000      3.00000E-02  1.0000     
     22     (1,22,47)             83.333       5.0000       5.00000E-05  33.912       1.0000       0.10000      3.00000E-02  1.0000     
     23     (1,23,47)             83.333       5.0000       5.00000E-05  33.908       1.0000       0.10000      3.00000E-02  1.0000     
     24     (1,24,47)             83.333       5.0000       5.00000E-05  33.903       1.0000       0.10000      3.00000E-02  1.0000     
     25     (1,25,47)             83.333       5.0000       5.00000E-05  33.899       1.0000       0.10000      3.00000E-02  1.0000     
     26     (1,26,47)             83.333       5.0000       5.00000E-05  33.895       1.0000       0.10000      3.00000E-02  1.0000     
     27     (1,27,47)             83.333       5.0000       5.00000E-05  33.891       1.0000       0.10000      3.00000E-02  1.0000     
     28     (1,28,47)             83.333       5.0000       5.00000E-05  33.887       1.0000       0.10000      3.00000E-02  1.0000     
     29     (1,29,47)             83.333       5.0000       5.00000E-05  33.882       1.0000       0.10000      3.00000E-02  1.0000     
     30     (1,30,47)             83.333       5.0000       5.00000E-05  33.878       1.0000       0.10000      3.00000E-02  1.0000     
     31     (1,31,47)             83.333       5.0000       5.00000E-05  33.874       1.0000       0.10000      3.00000E-02  1.0000     
     32     (1,32,47)             83.333       5.0000       5.00000E-05  33.870       1.0000       0.10000      3.00000E-02  1.0000     
     33     (1,33,47)             83.333       5.0000       5.00000E-05  33.866       1.0000       0.10000      3.00000E-02  1.0000     
     34     (1,34,47)             83.333       5.0000       5.00000E-05  33.861       1.0000       0.10000      3.00000E-02  1.0000     
     35     (1,35,47)             83.333       5.0000       5.00000E-05  33.857       1.0000       0.10000      3.00000E-02  1.0000     
     36     (1,36,47)             83.333       5.0000       5.00000E-05  33.853       1.0000       0.10000      3.00000E-02  1.0000     
     37     (1,37,47)             83.333       5.0000       5.00000E-05  33.849       1.0000       0.10000      3.00000E-02  1.0000     
     38     (1,38,47)             83.333       5.0000       5.00000E-05  33.845       1.0000       0.10000      3.00000E-02  1.0000     
     39     (1,39,47)             83.333       5.0000       5.00000E-05  33.840       1.0000       0.10000      3.00000E-02  1.0000     
     40     (1,40,47)             83.333       5.0000       5.00000E-05  33.836       1.0000       0.10000      3.00000E-02  1.0000     
     41     (1,41,47)             83.333       5.0000       5.00000E-05  33.832       1.0000       0.10000      3.00000E-02  1.0000     
     42     (1,42,47)             83.333       5.0000       5.00000E-05  33.828       1.0000       0.10000      3.00000E-02  1.0000     
     43     (1,43,47)             83.333       5.0000       5.00000E-05  33.824       1.0000       0.10000      3.00000E-02  1.0000     
     44     (1,44,47)             83.333       5.0000       5.00000E-05  33.819       1.0000       0.10000      3.00000E-02  1.0000     
     45     (1,45,47)             83.333       5.0000       5.00000E-05  33.815       1.0000       0.10000      3.00000E-02  1.0000     
     46     (1,46,47)             83.333       5.0000       5.00000E-05  33.811       1.0000       0.10000      3.00000E-02  1.0000     
     47     (1,47,47)             83.333       5.0000       5.00000E-05  33.807       1.0000       0.10000      3.00000E-02  1.0000     
     48     (1,48,47)             83.333       5.0000       5.00000E-05  33.803       1.0000       0.10000      3.00000E-02  1.0000     
     49     (1,49,47)             83.333       5.0000       5.00000E-05  33.798       1.0000       0.10000      3.00000E-02  1.0000     
     50     (1,50,47)             83.333       5.0000       5.00000E-05  33.794       1.0000       0.10000      3.00000E-02  1.0000     
     51     (1,51,47)             83.333       5.0000       5.00000E-05  33.790       1.0000       0.10000      3.00000E-02  1.0000     
     52     (1,52,47)             83.333       5.0000       5.00000E-05  33.786       1.0000       0.10000      3.00000E-02  1.0000     
     53     (1,53,47)             83.333       5.0000       5.00000E-05  33.782       1.0000       0.10000      3.00000E-02  1.0000     
     54     (1,54,47)             83.333       5.0000       5.00000E-05  33.777       1.0000       0.10000      3.00000E-02  1.0000     
     55     (1,55,47)             83.333       5.0000       5.00000E-05  33.773       1.0000       0.10000      3.00000E-02  1.0000     
     56     (1,56,47)             83.333       5.0000       5.00000E-05  33.769       1.0000       0.10000      3.00000E-02  1.0000     
     57     (1,57,47)             83.333       5.0000       5.00000E-05  33.765       1.0000       0.10000      3.00000E-02  1.0000     
     58     (1,58,47)             83.333       5.0000       5.00000E-05  33.761       1.0000       0.10000      3.00000E-02  1.0000     
     59     (1,59,47)             83.333       5.0000       5.00000E-05  33.756       1.0000       0.10000      3.00000E-02  1.0000     
     60     (1,60,47)             83.333       5.0000       5.00000E-05  33.752       1.0000       0.10000      3.00000E-02  1.0000     
     61     (1,61,47)             83.333       5.0000       5.00000E-05  33.748       1.0000       0.10000      3.00000E-02  1.0000     
     62     (1,62,47)             83.333       5.0000       5.00000E-05  33.744       1.0000       0.10000      3.00000E-02  1.0000     
     63     (1,63,47)             83.333       5.0000       5.00000E-05  33.739       1.0000       0.10000      3.00000E-02  1.0000     
     64     (1,64,47)             83.333       5.0000       5.00000E-05  33.735       1.0000       0.10000      3.00000E-02  1.0000     
     65     (1,65,47)             83.333       5.0000       5.00000E-05  33.731       1.0000       0.10000      3.00000E-02  1.0000     
     66     (1,66,47)             83.333       5.0000       5.00000E-05  33.727       1.0000       0.10000      3.00000E-02  1.0000     
     67     (1,67,47)             83.333       5.0000       5.00000E-05  33.723       1.0000       0.10000      3.00000E-02  1.0000     
     68     (1,68,47)             83.333       5.0000       5.00000E-05  33.718       1.0000       0.10000      3.00000E-02  1.0000     
     69     (1,69,47)             83.333       5.0000       5.00000E-05  33.714       1.0000       0.10000      3.00000E-02  1.0000     
     70     (1,70,47)             83.333       5.0000       5.00000E-05  33.710       1.0000       0.10000      3.00000E-02  1.0000     
     71     (1,71,47)             83.333       5.0000       5.00000E-05  33.706       1.0000       0.10000      3.00000E-02  1.0000     
     72     (1,72,47)             83.333       5.0000       5.00000E-05  33.702       1.0000       0.10000      3.00000E-02  1.0000     
     73     (1,73,47)             83.333       5.0000       5.00000E-05  33.697       1.0000       0.10000      3.00000E-02  1.0000     
     74     (1,74,47)             83.333       5.0000       5.00000E-05  33.693       1.0000       0.10000      3.00000E-02  1.0000     
     75     (1,75,47)             83.333       5.0000       5.00000E-05  33.689       1.0000       0.10000      3.00000E-02  1.0000     
     76     (1,76,47)             83.333       5.0000       5.00000E-05  33.685       1.0000       0.10000      3.00000E-02  1.0000     
     77     (1,77,47)             83.333       5.0000       5.00000E-05  33.681       1.0000       0.10000      3.00000E-02  1.0000     
     78     (1,78,47)             83.333       5.0000       5.00000E-05  33.676       1.0000       0.10000      3.00000E-02  1.0000     
     79     (1,79,47)             83.333       5.0000       5.00000E-05  33.672       1.0000       0.10000      3.00000E-02  1.0000     
     80     (1,80,47)             83.333       5.0000       5.00000E-05  33.668       1.0000       0.10000      3.00000E-02  1.0000     
     81     (1,81,47)             83.333       5.0000       5.00000E-05  33.664       1.0000       0.10000      3.00000E-02  1.0000     
     82     (1,82,47)             83.333       5.0000       5.00000E-05  33.660       1.0000       0.10000      3.00000E-02  1.0000     
     83     (1,83,47)             83.333       5.0000       5.00000E-05  33.655       1.0000       0.10000      3.00000E-02  1.0000     
     84     (1,84,47)             83.333       5.0000       5.00000E-05  33.651       1.0000       0.10000      3.00000E-02  1.0000     
     85     (1,85,47)             83.333       5.0000       5.00000E-05  33.647       1.0000       0.10000      3.00000E-02  1.0000     
     86     (1,86,47)             83.333       5.0000       5.00000E-05  33.643       1.0000       0.10000      3.00000E-02  1.0000     
     87     (1,87,47)             83.333       5.0000       5.00000E-05  33.639       1.0000       0.10000      3.00000E-02  1.0000     
     88     (1,88,47)             83.333       5.0000       5.00000E-05  33.634       1.0000       0.10000      3.00000E-02  1.0000     
     89     (1,89,47)             83.333       5.0000       5.00000E-05  33.630       1.0000       0.10000      3.00000E-02  1.0000     
     90     (1,90,47)             83.333       5.0000       5.00000E-05  33.626       1.0000       0.10000      3.00000E-02  1.0000     
     91     (1,91,47)             83.333       5.0000       5.00000E-05  33.622       1.0000       0.10000      3.00000E-02  1.0000     
     92     (1,92,47)             83.333       5.0000       5.00000E-05  33.618       1.0000       0.10000      3.00000E-02  1.0000     
     93     (1,93,47)             83.333       5.0000       5.00000E-05  33.613       1.0000       0.10000      3.00000E-02  1.0000     
     94     (1,94,47)             83.333       5.0000       5.00000E-05  33.609       1.0000       0.10000      3.00000E-02  1.0000     
     95     (1,95,47)             83.333       5.0000       5.00000E-05  33.605       1.0000       0.10000      3.00000E-02  1.0000     
     96     (1,96,47)             83.333       5.0000       5.00000E-05  33.601       1.0000       0.10000      3.00000E-02  1.0000     
     97     (1,97,47)             83.333       5.0000       5.00000E-05  33.597       1.0000       0.10000      3.00000E-02  1.0000     
     98     (1,98,47)             83.333       5.0000       5.00000E-05  33.592       1.0000       0.10000      3.00000E-02  1.0000     
     99     (1,99,47)             83.333       5.0000       5.00000E-05  33.588       1.0000       0.10000      3.00000E-02  1.0000     
    100     (1,100,47)            83.333       5.0000       5.00000E-05  33.584       1.0000       0.10000      3.00000E-02  1.0000     
    101     (1,101,47)            83.333       5.0000       5.00000E-05  33.580       1.0000       0.10000      3.00000E-02  1.0000     
    102     (1,102,47)            83.333       5.0000       5.00000E-05  33.576       1.0000       0.10000      3.00000E-02  1.0000     
    103     (1,103,47)            83.333       5.0000       5.00000E-05  33.571       1.0000       0.10000      3.00000E-02  1.0000     
    104     (1,104,47)            83.333       5.0000       5.00000E-05  33.567       1.0000       0.10000      3.00000E-02  1.0000     
    105     (1,105,47)            83.333       5.0000       5.00000E-05  33.563       1.0000       0.10000      3.00000E-02  1.0000     
    106     (1,106,47)            83.333       5.0000       5.00000E-05  33.559       1.0000       0.10000      3.00000E-02  1.0000     
    107     (1,107,47)            83.333       5.0000       5.00000E-05  33.555       1.0000       0.10000      3.00000E-02  1.0000     
    108     (1,108,47)            83.333       5.0000       5.00000E-05  33.550       1.0000       0.10000      3.00000E-02  1.0000     
    109     (1,109,47)            83.333       5.0000       5.00000E-05  33.546       1.0000       0.10000      3.00000E-02  1.0000     
    110     (1,110,47)            83.333       5.0000       5.00000E-05  33.542       1.0000       0.10000      3.00000E-02  1.0000     
    111     (1,111,47)            83.333       5.0000       5.00000E-05  33.538       1.0000       0.10000      3.00000E-02  1.0000     
    112     (1,112,47)            83.333       5.0000       5.00000E-05  33.534       1.0000       0.10000      3.00000E-02  1.0000     
    113     (1,113,47)            83.333       5.0000       5.00000E-05  33.529       1.0000       0.10000      3.00000E-02  1.0000     
    114     (1,114,47)            83.333       5.0000       5.00000E-05  33.525       1.0000       0.10000      3.00000E-02  1.0000     
    115     (1,115,47)            83.333       5.0000       5.00000E-05  33.521       1.0000       0.10000      3.00000E-02  1.0000     
    116     (1,116,47)            83.333       5.0000       5.00000E-05  33.517       1.0000       0.10000      3.00000E-02  1.0000     
    117     (1,117,47)            83.333       5.0000       5.00000E-05  33.513       1.0000       0.10000      3.00000E-02  1.0000     
    118     (1,118,47)            83.333       5.0000       5.00000E-05  33.508       1.0000       0.10000      3.00000E-02  1.0000     
    119     (1,119,47)            83.333       5.0000       5.00000E-05  33.504       1.0000       0.10000      3.00000E-02  1.0000     
    120     (1,120,47)            83.333       5.0000       5.00000E-05  33.501       1.0000       0.10000      3.00000E-02  1.0000     
 ---------------------------------------------------------------------------------------------------------------------------------------



 SFR PACKAGE (SFR_1) STATIC REACH CONNECTION DATA
 --------------------------------
   REACH      CONN 1     CONN 2  
 --------------------------------
     1          2                
     2          1          3     
     3          2          4     
     4          3          5     
     5          4          6     
     6          5          7     
     7          6          8     
     8          7          9     
     9          8          10    
     10         9          11    
     11         10         12    
     12         11         13    
     13         12         14    
     14         13         15    
     15         14         16    
     16         15         17    
     17         16         18    
     18         17         19    
     19         18         20    
     20         19         21    
     21         20         22    
     22         21         23    
     23         22         24    
     24         23         25    
     25         24         26    
     26         25         27    
     27         26         28    
     28         27         29    
     29         28         30    
     30         29         31    
     31         30         32    
     32         31         33    
     33         32         34    
     34         33         35    
     35         34         36    
     36         35         37    
     37         36         38    
     38         37         39    
     39         38         40    
     40         39         41    
     41         40         42    
     42         41         43    
     43         42         44    
     44         43         45    
     45         44         46    
     46         45         47    
     47         46         48    
     48         47         49    
     49         48         50    
     50         49         51    
     51         50         52    
     52         51         53    
     53         52         54    
     54         53         55    
     55         54         56    
     56         55         57    
     57         56         58    
     58         57         59    
     59         58         60    
     60         59         61    
     61         60         62    
     62         61         63    
     63         62         64    
     64         63         65    
     65         64         66    
     66         65         67    
     67         66         68    
     68         67         69    
     69         68         70    
     70         69         71    
     71         70         72    
     72         71         73    
     73         72         74    
     74         73         75    
     75         74         76    
     76         75         77    
     77         76         78    
     78         77         79    
     79         78         80    
     80         79         81    
     81         80         82    
     82         81         83    
     83         82         84    
     84         83         85    
     85         84         86    
     86         85         87    
     87         86         88    
     88         87         89    
     89         88         90    
     90         89         91    
     91         90         92    
     92         91         93    
     93         92         94    
     94         93         95    
     95         94         96    
     96         95         97    
     97         96         98    
     98         97         99    
     99         98        100    
    100         99        101    
    101        100        102    
    102        101        103    
    103        102        104    
    104        103        105    
    105        104        106    
    106        105        107    
    107        106        108    
    108        107        109    
    109        108        110    
    110        109        111    
    111        110        112    
    112        111        113    
    113        112        114    
    114        113        115    
    115        114        116    
    116        115        117    
    117        116        118    
    118        117        119    
    119        118        120    
    120        119               
 --------------------------------



 SFR PACKAGE (SFR_1) STATIC UPSTREAM REACH CONNECTION DATA
 ---------------------
             UPSTREAM 
   REACH      CONN 1  
 ---------------------
     1                
     2          1     
     3          2     
     4          3     
     5          4     
     6          5     
     7          6     
     8          7     
     9          8     
     10         9     
     11         10    
     12         11    
     13         12    
     14         13    
     15         14    
     16         15    
     17         16    
     18         17    
     19         18    
     20         19    
     21         20    
     22         21    
     23         22    
     24         23    
     25         24    
     26         25    
     27         26    
     28         27    
     29         28    
     30         29    
     31         30    
     32         31    
     33         32    
     34         33    
     35         34    
     36         35    
     37         36    
     38         37    
     39         38    
     40         39    
     41         40    
     42         41    
     43         42    
     44         43    
     45         44    
     46         45    
     47         46    
     48         47    
     49         48    
     50         49    
     51         50    
     52         51    
     53         52    
     54         53    
     55         54    
     56         55    
     57         56    
     58         57    
     59         58    
     60         59    
     61         60    
     62         61    
     63         62    
     64         63    
     65         64    
     66         65    
     67         66    
     68         67    
     69         68    
     70         69    
     71         70    
     72         71    
     73         72    
     74         73    
     75         74    
     76         75    
     77         76    
     78         77    
     79         78    
     80         79    
     81         80    
     82         81    
     83         82    
     84         83    
     85         84    
     86         85    
     87         86    
     88         87    
     89         88    
     90         89    
     91         90    
     92         91    
     93         92    
     94         93    
     95         94    
     96         95    
     97         96    
     98         97    
     99         98    
    100         99    
    101        100    
    102        101    
    103        102    
    104        103    
    105        104    
    106        105    
    107        106    
    108        107    
    109        108    
    110        109    
    111        110    
    112        111    
    113        112    
    114        113    
    115        114    
    116        115    
    117        116    
    118        117    
    119        118    
    120        119    
 ---------------------



 SFR PACKAGE (SFR_1) STATIC DOWNSTREAM REACH CONNECTION DATA
 ---------------------
            DOWNSTREAM
   REACH      CONN 1  
 ---------------------
     1          2     
     2          3     
     3          4     
     4          5     
     5          6     
     6          7     
     7          8     
     8          9     
     9          10    
     10         11    
     11         12    
     12         13    
     13         14    
     14         15    
     15         16    
     16         17    
     17         18    
     18         19    
     19         20    
     20         21    
     21         22    
     22         23    
     23         24    
     24         25    
     25         26    
     26         27    
     27         28    
     28         29    
     29         30    
     30         31    
     31         32    
     32         33    
     33         34    
     34         35    
     35         36    
     36         37    
     37         38    
     38         39    
     39         40    
     40         41    
     41         42    
     42         43    
     43         44    
     44         45    
     45         46    
     46         47    
     47         48    
     48         49    
     49         50    
     50         51    
     51         52    
     52         53    
     53         54    
     54         55    
     55         56    
     56         57    
     57         58    
     58         59    
     59         60    
     60         61    
     61         62    
     62         63    
     63         64    
     64         65    
     65         66    
     66         67    
     67         68    
     68         69    
     69         70    
     70         71    
     71         72    
     72         73    
     73         74    
     74         75    
     75         76    
     76         77    
     77         78    
     78         79    
     79         80    
     80         81    
     81         82    
     82         83    
     83         84    
     84         85    
     85         86    
     86         87    
     87         88    
     88         89    
     89         90    
     90         91    
     91         92    
     92         93    
     93         94    
     94         95    
     95         96    
     96         97    
     97         98    
     98         99    
     99        100    
    100        101    
    101        102    
    102        103    
    103        104    
    104        105    
    105        106    
    106        107    
    107        108    
    108        109    
    109        110    
    110        111    
    111        112    
    112        113    
    113        114    
    114        115    
    115        116    
    116        117    
    117        118    
    118        119    
    119        120    
    120               
 ---------------------



start timestep kper="1" kstp="1" mode="normal"


 BEGIN READING OUTPUT CONTROL FOR STRESS PERIOD 1
      ALL TIME STEPS WILL BE SAVED
      ALL TIME STEPS WILL BE SAVED
      ALL TIME STEPS WILL BE PRINTED

 END READING OUTPUT CONTROL FOR STRESS PERIOD 1


 PROCESSING STORAGE PERIOD DATA
 END PROCESSING STORAGE PERIOD DATA


 STRESS PERIOD 1 IS STEADY-STATE


 OPENED freyberg6.wel_stress_period_data_1.txt
 FILE TYPE:OPEN/CLOSE   UNIT 1056   STATUS:OLD                 
 FORMAT:FORMATTED              ACCESS:SEQUENTIAL          
 ACTION:READ                


 OPENED freyberg6.ghb_stress_period_data_1.txt
 FILE TYPE:OPEN/CLOSE   UNIT 1057   STATUS:OLD                 
 FORMAT:FORMATTED              ACCESS:SEQUENTIAL          
 ACTION:READ                

 --------------------------------------------------------------------
  GHB NO.    LAYER    ROW     COL        STAGE         CONDUCTANCE   
 --------------------------------------------------------------------
     1         1      120     16     33.5000000       333.333340     
     2         1      120     17     33.5000000       333.333340     
     3         1      120     18     33.5000000       333.333340     
     4         1      120     19     33.5000000       333.333340     
     5         1      120     20     33.5000000       333.333340     
     6         1      120     21     33.5000000       333.333340     
     7         1      120     22     33.5000000       333.333340     
     8         1      120     23     33.5000000       333.333340     
     9         1      120     24     33.5000000       333.333340     
     10        1      120     25     33.5000000       333.333340     
     11        1      120     26     33.5000000       333.333340     
     12        1      120     27     33.5000000       333.333340     
     13        1      120     28     33.5000000       333.333340     
     14        1      120     29     33.5000000       333.333340     
     15        1      120     30     33.5000000       333.333340     
     16        1      120     31     33.5000000       333.333340     
     17        1      120     32     33.5000000       333.333340     
     18        1      120     33     33.5000000       333.333340     
     19        1      120     34     33.5000000       333.333340     
     20        1      120     35     33.5000000       333.333340     
     21        1      120     36     33.5000000       333.333340     
     22        1      120     37     33.5000000       333.333340     
     23        1      120     38     33.5000000       333.333340     
     24        1      120     39     33.5000000       333.333340     
     25        1      120     40     33.5000000       333.333340     
     26        1      120     41     33.5000000       333.333340     
     27        1      120     42     33.5000000       333.333340     
     28        1      120     43     33.5000000       333.333340     
     29        1      120     44     33.5000000       333.333340     
     30        1      120     45     33.5000000       333.333340     
     31        1      120     46     33.5000000       333.333340     
     32        1      120     47     33.5000000       333.333340     
     33        1      120     48     33.5000000       333.333340     
 --------------------------------------------------------------------



 OPENED freyberg6.rcha_recharge_1.txt
 FILE TYPE:OPEN/CLOSE   UNIT 1058   STATUS:OLD                 
 FORMAT:FORMATTED              ACCESS:SEQUENTIAL          
 ACTION:READ                


 OPENED freyberg6.sfr_perioddata_1.txt
 FILE TYPE:OPEN/CLOSE   UNIT 1059   STATUS:OLD                 
 FORMAT:FORMATTED              ACCESS:SEQUENTIAL          
 ACTION:READ                


 SFR PACKAGE (SFR_1) DATA FOR PERIOD      1
 ---------------------------------------------------------------
   NUMBER   KEYWORD                  VALUE 1         VALUE 2    
 ---------------------------------------------------------------
     1      INFLOW               500.00000000000                
 ---------------------------------------------------------------



 SFR PACKAGE (SFR_1) CONNECTED REACH UPSTREAM FRACTION DATA
 ----------------------------------
            DOWNSTREAM             
   REACH     REACH 1    FRACTION 1 
 ----------------------------------
     1          2       1.0000     
     2          3       1.0000     
     3          4       1.0000     
     4          5       1.0000     
     5          6       1.0000     
     6          7       1.0000     
     7          8       1.0000     
     8          9       1.0000     
     9          10      1.0000     
     10         11      1.0000     
     11         12      1.0000     
     12         13      1.0000     
     13         14      1.0000     
     14         15      1.0000     
     15         16      1.0000     
     16         17      1.0000     
     17         18      1.0000     
     18         19      1.0000     
     19         20      1.0000     
     20         21      1.0000     
     21         22      1.0000     
     22         23      1.0000     
     23         24      1.0000     
     24         25      1.0000     
     25         26      1.0000     
     26         27      1.0000     
     27         28      1.0000     
     28         29      1.0000     
     29         30      1.0000     
     30         31      1.0000     
     31         32      1.0000     
     32         33      1.0000     
     33         34      1.0000     
     34         35      1.0000     
     35         36      1.0000     
     36         37      1.0000     
     37         38      1.0000     
     38         39      1.0000     
     39         40      1.0000     
     40         41      1.0000     
     41         42      1.0000     
     42         43      1.0000     
     43         44      1.0000     
     44         45      1.0000     
     45         46      1.0000     
     46         47      1.0000     
     47         48      1.0000     
     48         49      1.0000     
     49         50      1.0000     
     50         51      1.0000     
     51         52      1.0000     
     52         53      1.0000     
     53         54      1.0000     
     54         55      1.0000     
     55         56      1.0000     
     56         57      1.0000     
     57         58      1.0000     
     58         59      1.0000     
     59         60      1.0000     
     60         61      1.0000     
     61         62      1.0000     
     62         63      1.0000     
     63         64      1.0000     
     64         65      1.0000     
     65         66      1.0000     
     66         67      1.0000     
     67         68      1.0000     
     68         69      1.0000     
     69         70      1.0000     
     70         71      1.0000     
     71         72      1.0000     
     72         73      1.0000     
     73         74      1.0000     
     74         75      1.0000     
     75         76      1.0000     
     76         77      1.0000     
     77         78      1.0000     
     78         79      1.0000     
     79         80      1.0000     
     80         81      1.0000     
     81         82      1.0000     
     82         83      1.0000     
     83         84      1.0000     
     84         85      1.0000     
     85         86      1.0000     
     86         87      1.0000     
     87         88      1.0000     
     88         89      1.0000     
     89         90      1.0000     
     90         91      1.0000     
     91         92      1.0000     
     92         93      1.0000     
     93         94      1.0000     
     94         95      1.0000     
     95         96      1.0000     
     96         97      1.0000     
     97         98      1.0000     
     98         99      1.0000     
     99        100      1.0000     
    100        101      1.0000     
    101        102      1.0000     
    102        103      1.0000     
    103        104      1.0000     
    104        105      1.0000     
    105        106      1.0000     
    106        107      1.0000     
    107        108      1.0000     
    108        109      1.0000     
    109        110      1.0000     
    110        111      1.0000     
    111        112      1.0000     
    112        113      1.0000     
    113        114      1.0000     
    114        115      1.0000     
    115        116      1.0000     
    116        117      1.0000     
    117        118      1.0000     
    118        119      1.0000     
    119        120      1.0000     
    120                            
 ----------------------------------


 UBDSV1 SAVING     FLOW-JA-FACE ON UNIT   1052 AT TIME STEP      1, STRESS PERIOD      1
 UBDSV06 SAVING              GHB IN MODEL FREYBERG6        PACKAGE FREYBERG6       CONNECTED TO MODEL FREYBERG6        PACKAGE GHB-1            ON UNIT   1052 AT TIME STEP      1, STRESS PERIOD      1
 UBDSV06 SAVING              SFR IN MODEL FREYBERG6        PACKAGE FREYBERG6       CONNECTED TO MODEL FREYBERG6        PACKAGE SFR_1            ON UNIT   1052 AT TIME STEP      1, STRESS PERIOD      1

 GHB PACKAGE (GHB-1) FLOW RATES   PERIOD      1   STEP        1
 -----------------------------------------------
   NUMBER   CELLID                    RATE      
 -----------------------------------------------
     1      (1,120,16)           -31.210517     
     2      (1,120,17)           -31.199796     
     3      (1,120,18)           -31.194754     
     4      (1,120,19)           -31.144302     
     5      (1,120,20)           -31.117563     
     6      (1,120,21)           -31.074618     
     7      (1,120,22)           -30.976076     
     8      (1,120,23)           -30.886294     
     9      (1,120,24)           -30.750975     
     10     (1,120,25)           -30.590159     
     11     (1,120,26)           -30.416546     
     12     (1,120,27)           -30.246982     
     13     (1,120,28)           -30.057829     
     14     (1,120,29)           -29.893251     
     15     (1,120,30)           -29.723692     
     16     (1,120,31)           -29.533087     
     17     (1,120,32)           -29.358435     
     18     (1,120,33)           -29.175440     
     19     (1,120,34)           -28.983142     
     20     (1,120,35)           -28.799043     
     21     (1,120,36)           -28.616351     
     22     (1,120,37)           -28.448157     
     23     (1,120,38)           -28.284017     
     24     (1,120,39)           -28.136962     
     25     (1,120,40)           -28.007039     
     26     (1,120,41)           -27.894324     
     27     (1,120,42)           -27.799396     
     28     (1,120,43)           -27.719143     
     29     (1,120,44)           -27.659627     
     30     (1,120,45)           -27.615734     
     31     (1,120,46)           -27.561707     
     32     (1,120,47)           -28.402502     
     33     (1,120,48)           -27.641605     
 -----------------------------------------------




 HEAD WILL BE SAVED ON UNIT 1053 AT END OF TIME STEP    1, STRESS PERIOD    1


  SFR_1 BUDGET FOR ENTIRE MODEL AT END OF TIME STEP    1, STRESS PERIOD   1
  ------------------------------------------------------------------------------

     CUMULATIVE SFR_1      L**3       RATES FOR THIS TIME STEP      L**3/T
     ------------------                 ------------------------

           IN:                                      IN:
           ---                                      ---
                 GWF =        2543.9978                   GWF =        2543.9978
            RAINFALL =           0.0000              RAINFALL =           0.0000
         EVAPORATION =           0.0000           EVAPORATION =           0.0000
              RUNOFF =           0.0000                RUNOFF =           0.0000
          EXT-INFLOW =         500.0000            EXT-INFLOW =         500.0000
         EXT-OUTFLOW =           0.0000           EXT-OUTFLOW =           0.0000
             STORAGE =           0.0000               STORAGE =           0.0000

            TOTAL IN =        3043.9978              TOTAL IN =        3043.9978

          OUT:                                     OUT:
          ----                                     ----
                 GWF =           1.5622                   GWF =           1.5622
            RAINFALL =           0.0000              RAINFALL =           0.0000
         EVAPORATION =           0.0000           EVAPORATION =           0.0000
              RUNOFF =           0.0000                RUNOFF =           0.0000
          EXT-INFLOW =           0.0000            EXT-INFLOW =           0.0000
         EXT-OUTFLOW =        3042.4356           EXT-OUTFLOW =        3042.4356
             STORAGE =           0.0000               STORAGE =           0.0000

           TOTAL OUT =        3043.9978             TOTAL OUT =        3043.9978

            IN - OUT =       9.0949E-13              IN - OUT =       9.0949E-13

 PERCENT DISCREPANCY =           0.00     PERCENT DISCREPANCY =           0.00



  VOLUME BUDGET FOR ENTIRE MODEL AT END OF TIME STEP    1, STRESS PERIOD   1
  ---------------------------------------------------------------------------------------------------

     CUMULATIVE VOLUME      L**3       RATES FOR THIS TIME STEP      L**3/T          PACKAGE NAME    
     ------------------                 ------------------------                     ----------------

           IN:                                      IN:
           ---                                      ---
              STO-SS =           0.0000                STO-SS =           0.0000     STORAGE                          
              STO-SY =           0.0000                STO-SY =           0.0000     STORAGE                          
                 WEL =           0.0000                   WEL =           0.0000     WEL_0                            
                 GHB =           0.0000                   GHB =           0.0000     GHB-1                            
                RCHA =        4412.5007                  RCHA =        4412.5007     RCHA_0                           
                 SFR =           1.5622                   SFR =           1.5622     SFR_1                            

            TOTAL IN =        4414.0629              TOTAL IN =        4414.0629

          OUT:                                     OUT:
          ----                                     ----
              STO-SS =           0.0000                STO-SS =           0.0000     STORAGE                          
              STO-SY =           0.0000                STO-SY =           0.0000     STORAGE                          
                 WEL =         900.4096                   WEL =         900.4096     WEL_0                            
                 GHB =         970.1191                   GHB =         970.1191     GHB-1                            
                RCHA =           0.0000                  RCHA =           0.0000     RCHA_0                           
                 SFR =        2543.9969                   SFR =        2543.9969     SFR_1                            

           TOTAL OUT =        4414.5256             TOTAL OUT =        4414.5256

            IN - OUT =          -0.4627              IN - OUT =          -0.4627

 PERCENT DISCREPANCY =          -0.01     PERCENT DISCREPANCY =          -0.01




         TIME SUMMARY AT END OF TIME STEP    1 IN STRESS PERIOD    1
                    SECONDS     MINUTES      HOURS       DAYS        YEARS
                    -----------------------------------------------------------
   TIME STEP LENGTH  86400.      1440.0      24.000      1.0000     2.73785E-03
 STRESS PERIOD TIME  86400.      1440.0      24.000      1.0000     2.73785E-03
         TOTAL TIME  86400.      1440.0      24.000      1.0000     2.73785E-03


end timestep


start timestep kper="2" kstp="1" mode="normal"


 END OF FILE DETECTED IN OUTPUT CONTROL.
 CURRENT OUTPUT CONTROL SETTINGS WILL BE 
 REPEATED UNTIL THE END OF THE SIMULATION.

 OUTPUT CONTROL FOR STRESS PERIOD 2 IS REPEATED USING SETTINGS FROM A PREVIOUS STRESS PERIOD.


 PROCESSING STORAGE PERIOD DATA
 END PROCESSING STORAGE PERIOD DATA


 STRESS PERIOD 2 IS TRANSIENT


 OPENED freyberg6.wel_stress_period_data_2.txt
 FILE TYPE:OPEN/CLOSE   UNIT 1060   STATUS:OLD                 
 FORMAT:FORMATTED              ACCESS:SEQUENTIAL          
 ACTION:READ                


 REUSING GHBS FROM LAST STRESS PERIOD

 OPENED freyberg6.rcha_recharge_2.txt
 FILE TYPE:OPEN/CLOSE   UNIT 1061   STATUS:OLD                 
 FORMAT:FORMATTED              ACCESS:SEQUENTIAL          
 ACTION:READ                

 ---------------------------------------------------------------


 UBDSV1 SAVING     FLOW-JA-FACE ON UNIT   1052 AT TIME STEP      1, STRESS PERIOD      2
 UBDSV06 SAVING              GHB IN MODEL FREYBERG6        PACKAGE FREYBERG6       CONNECTED TO MODEL FREYBERG6        PACKAGE GHB-1            ON UNIT   1052 AT TIME STEP      1, STRESS PERIOD      2
 UBDSV06 SAVING              SFR IN MODEL FREYBERG6        PACKAGE FREYBERG6       CONNECTED TO MODEL FREYBERG6        PACKAGE SFR_1            ON UNIT   1052 AT TIME STEP      1, STRESS PERIOD      2

 GHB PACKAGE (GHB-1) FLOW RATES   PERIOD      2   STEP        1
 -----------------------------------------------
   NUMBER   CELLID                    RATE      
 -----------------------------------------------
     1      (1,120,16)           -30.144313     
     2      (1,120,17)           -30.133083     
     3      (1,120,18)           -30.126605     
     4      (1,120,19)           -30.075409     
     5      (1,120,20)           -30.046737     
     6      (1,120,21)           -30.001796     
     7      (1,120,22)           -29.902535     
     8      (1,120,23)           -29.811502     
     9      (1,120,24)           -29.675866     
     10     (1,120,25)           -29.515167     
     11     (1,120,26)           -29.341832     
     12     (1,120,27)           -29.172314     
     13     (1,120,28)           -28.983837     
     14     (1,120,29)           -28.819312     
     15     (1,120,30)           -28.650004     
     16     (1,120,31)           -28.460457     
     17     (1,120,32)           -28.286608     
     18     (1,120,33)           -28.104872     
     19     (1,120,34)           -27.914406     
     20     (1,120,35)           -27.732248     
     21     (1,120,36)           -27.551857     
     22     (1,120,37)           -27.385975     
     23     (1,120,38)           -27.224538     
     24     (1,120,39)           -27.080243     
     25     (1,120,40)           -26.953177     
     26     (1,120,41)           -26.843445     
     27     (1,120,42)           -26.751630     
     28     (1,120,43)           -26.674731     
     29     (1,120,44)           -26.618612     
     30     (1,120,45)           -26.578304     
     31     (1,120,46)           -26.529754     
     32     (1,120,47)           -27.429310     
     33     (1,120,48)           -26.610300     
 -----------------------------------------------




 HEAD WILL BE SAVED ON UNIT 1053 AT END OF TIME STEP    1, STRESS PERIOD    2


  SFR_1 BUDGET FOR ENTIRE MODEL AT END OF TIME STEP    1, STRESS PERIOD   2
  ------------------------------------------------------------------------------

     CUMULATIVE SFR_1      L**3       RATES FOR THIS TIME STEP      L**3/T
     ------------------                 ------------------------

           IN:                                      IN:
           ---                                      ---
                 GWF =        5014.0004                   GWF =        2470.0026
            RAINFALL =           0.0000              RAINFALL =           0.0000
         EVAPORATION =           0.0000           EVAPORATION =           0.0000
              RUNOFF =           0.0000                RUNOFF =           0.0000
          EXT-INFLOW =        1000.0000            EXT-INFLOW =         500.0000
         EXT-OUTFLOW =           0.0000           EXT-OUTFLOW =           0.0000
             STORAGE =           0.0000               STORAGE =           0.0000

            TOTAL IN =        6014.0004              TOTAL IN =        2970.0026

          OUT:                                     OUT:
          ----                                     ----
                 GWF =           3.1717                   GWF =           1.6095
            RAINFALL =           0.0000              RAINFALL =           0.0000
         EVAPORATION =           0.0000           EVAPORATION =           0.0000
              RUNOFF =           0.0000                RUNOFF =           0.0000
          EXT-INFLOW =           0.0000            EXT-INFLOW =           0.0000
         EXT-OUTFLOW =        6010.8287           EXT-OUTFLOW =        2968.3931
             STORAGE =           0.0000               STORAGE =           0.0000

           TOTAL OUT =        6014.0004             TOTAL OUT =        2970.0026

            IN - OUT =       1.8190E-12              IN - OUT =       9.0949E-13

 PERCENT DISCREPANCY =           0.00     PERCENT DISCREPANCY =           0.00



  VOLUME BUDGET FOR ENTIRE MODEL AT END OF TIME STEP    1, STRESS PERIOD   2
  ---------------------------------------------------------------------------------------------------

     CUMULATIVE VOLUME      L**3       RATES FOR THIS TIME STEP      L**3/T          PACKAGE NAME    
     ------------------                 ------------------------                     ----------------

           IN:                                      IN:
           ---                                      ---
              STO-SS =          31.6397                STO-SS =          31.6397     STORAGE                          
              STO-SY =        1084.1435                STO-SY =        1084.1435     STORAGE                          
                 WEL =           0.0000                   WEL =           0.0000     WEL_0                            
                 GHB =           0.0000                   GHB =           0.0000     GHB-1                            
                RCHA =        7600.6307                  RCHA =        3188.1300     RCHA_0                           
                 SFR =           3.1717                   SFR =           1.6095     SFR_1                            

            TOTAL IN =        8719.5855              TOTAL IN =        4305.5226

          OUT:                                     OUT:
          ----                                     ----
              STO-SS =           0.0000                STO-SS =           0.0000     STORAGE                          
              STO-SY =           0.0000                STO-SY =           0.0000     STORAGE                          
                 WEL =        1800.9534                   WEL =         900.5438     WEL_0                            
                 GHB =        1905.2498                   GHB =         935.1308     GHB-1                            
                RCHA =           0.0000                  RCHA =           0.0000     RCHA_0                           
                 SFR =        5013.9993                   SFR =        2470.0025     SFR_1                            

           TOTAL OUT =        8720.2026             TOTAL OUT =        4305.6771

            IN - OUT =          -0.6171              IN - OUT =          -0.1544

 PERCENT DISCREPANCY =          -0.01     PERCENT DISCREPANCY =          -0.00




         TIME SUMMARY AT END OF TIME STEP    1 IN STRESS PERIOD    2
                    SECONDS     MINUTES      HOURS       DAYS        YEARS
                    -----------------------------------------------------------
   TIME STEP LENGTH  86400.      1440.0      24.000      1.0000     2.73785E-03
 STRESS PERIOD TIME  86400.      1440.0      24.000      1.0000     2.73785E-03
         TOTAL TIME 1.72800E+05  2880.0      48.000      2.0000     5.47570E-03


end timestep


start timestep kper="3" kstp="1" mode="normal"


 OUTPUT CONTROL FOR STRESS PERIOD 3 IS REPEATED USING SETTINGS FROM A PREVIOUS STRESS PERIOD.


 STRESS PERIOD 3 IS TRANSIENT


 OPENED freyberg6.wel_stress_period_data_3.txt
 FILE TYPE:OPEN/CLOSE   UNIT 1062   STATUS:OLD                 
 FORMAT:FORMATTED              ACCESS:SEQUENTIAL          
 ACTION:READ                


 REUSING GHBS FROM LAST STRESS PERIOD

 OPENED freyberg6.rcha_recharge_3.txt
 FILE TYPE:OPEN/CLOSE   UNIT 1063   STATUS:OLD                 
 FORMAT:FORMATTED              ACCESS:SEQUENTIAL          
 ACTION:READ                


 REUSING SFRS FROM LAST STRESS PERIOD
 UBDSV1 SAVING     FLOW-JA-FACE ON UNIT   1052 AT TIME STEP      1, STRESS PERIOD      3
 UBDSV06 SAVING              GHB IN MODEL FREYBERG6        PACKAGE FREYBERG6       CONNECTED TO MODEL FREYBERG6        PACKAGE GHB-1            ON UNIT   1052 AT TIME STEP      1, STRESS PERIOD      3
 UBDSV06 SAVING              SFR IN MODEL FREYBERG6        PACKAGE FREYBERG6       CONNECTED TO MODEL FREYBERG6        PACKAGE SFR_1            ON UNIT   1052 AT TIME STEP      1, STRESS PERIOD      3

 GHB PACKAGE (GHB-1) FLOW RATES   PERIOD      3   STEP        1
 -----------------------------------------------
   NUMBER   CELLID                    RATE      
 -----------------------------------------------
     1      (1,120,16)           -31.264025     
     2      (1,120,17)           -31.253416     
     3      (1,120,18)           -31.248542     
     4      (1,120,19)           -31.198419     
     5      (1,120,20)           -31.171997     
     6      (1,120,21)           -31.129449     
     7      (1,120,22)           -31.031469     
     8      (1,120,23)           -30.942295     
     9      (1,120,24)           -30.807783     
     10     (1,120,25)           -30.647904     
     11     (1,120,26)           -30.475298     
     12     (1,120,27)           -30.306749     
     13     (1,120,28)           -30.118658     
     14     (1,120,29)           -29.955093     
     15     (1,120,30)           -29.786584     
     16     (1,120,31)           -29.597092     
     17     (1,120,32)           -29.423543     
     18     (1,120,33)           -29.241709     
     19     (1,120,34)           -29.050618     
     20     (1,120,35)           -28.867720     
     21     (1,120,36)           -28.686227     
     22     (1,120,37)           -28.519190     
     23     (1,120,38)           -28.356165     
     24     (1,120,39)           -28.210127     
     25     (1,120,40)           -28.081103     
     26     (1,120,41)           -27.969150     
     27     (1,120,42)           -27.874823     
     28     (1,120,43)           -27.794997     
     29     (1,120,44)           -27.735698     
     30     (1,120,45)           -27.691820     
     31     (1,120,46)           -27.637646     
     32     (1,120,47)           -28.466328     
     33     (1,120,48)           -27.716797     
 -----------------------------------------------




 HEAD WILL BE SAVED ON UNIT 1053 AT END OF TIME STEP    1, STRESS PERIOD    3


  SFR_1 BUDGET FOR ENTIRE MODEL AT END OF TIME STEP    1, STRESS PERIOD   3
  ------------------------------------------------------------------------------

     CUMULATIVE SFR_1      L**3       RATES FOR THIS TIME STEP      L**3/T
     ------------------                 ------------------------

           IN:                                      IN:
           ---                                      ---
                 GWF =        7549.2246                   GWF =        2535.2242
            RAINFALL =           0.0000              RAINFALL =           0.0000
         EVAPORATION =           0.0000           EVAPORATION =           0.0000
              RUNOFF =           0.0000                RUNOFF =           0.0000
          EXT-INFLOW =        1500.0000            EXT-INFLOW =         500.0000
         EXT-OUTFLOW =           0.0000           EXT-OUTFLOW =           0.0000
             STORAGE =           0.0000               STORAGE =           0.0000

            TOTAL IN =        9049.2246              TOTAL IN =        3035.2242

          OUT:                                     OUT:
          ----                                     ----
                 GWF =           4.7171                   GWF =           1.5455
            RAINFALL =           0.0000              RAINFALL =           0.0000
         EVAPORATION =           0.0000           EVAPORATION =           0.0000
              RUNOFF =           0.0000                RUNOFF =           0.0000
          EXT-INFLOW =           0.0000            EXT-INFLOW =           0.0000
         EXT-OUTFLOW =        9044.5075           EXT-OUTFLOW =        3033.6788
             STORAGE =           0.0000               STORAGE =           0.0000

           TOTAL OUT =        9049.2246             TOTAL OUT =        3035.2242

            IN - OUT =       1.8190E-12              IN - OUT =      -9.0949E-13

 PERCENT DISCREPANCY =           0.00     PERCENT DISCREPANCY =          -0.00



  VOLUME BUDGET FOR ENTIRE MODEL AT END OF TIME STEP    1, STRESS PERIOD   3
  ---------------------------------------------------------------------------------------------------

     CUMULATIVE VOLUME      L**3       RATES FOR THIS TIME STEP      L**3/T          PACKAGE NAME    
     ------------------                 ------------------------                     ----------------

           IN:                                      IN:
           ---                                      ---
              STO-SS =          31.6397                STO-SS =           0.0000     STORAGE                          
              STO-SY =        1084.1435                STO-SY =           0.0000     STORAGE                          
                 WEL =           0.0000                   WEL =           0.0000     WEL_0                            
                 GHB =           0.0000                   GHB =           0.0000     GHB-1                            
                RCHA =       12911.3729                  RCHA =        5310.7422     RCHA_0                           
                 SFR =           4.7171                   SFR =           1.5454     SFR_1                            

            TOTAL IN =       14031.8732              TOTAL IN =        5312.2877

          OUT:                                     OUT:
          ----                                     ----
              STO-SS =          25.7399                STO-SS =          25.7399     STORAGE                          
              STO-SY =         878.3631                STO-SY =         878.3631     STORAGE                          
                 WEL =        2701.4434                   WEL =         900.4899     WEL_0                            
                 GHB =        2877.5083                   GHB =         972.2584     GHB-1                            
                RCHA =           0.0000                  RCHA =           0.0000     RCHA_0                           
                 SFR =        7549.2245                   SFR =        2535.2251     SFR_1                            

           TOTAL OUT =       14032.2791             TOTAL OUT =        5312.0765

            IN - OUT =          -0.4059              IN - OUT =           0.2111

 PERCENT DISCREPANCY =          -0.00     PERCENT DISCREPANCY =           0.00




         TIME SUMMARY AT END OF TIME STEP    1 IN STRESS PERIOD    3
                    SECONDS     MINUTES      HOURS       DAYS        YEARS
                    -----------------------------------------------------------
   TIME STEP LENGTH  86400.      1440.0      24.000      1.0000     2.73785E-03
 STRESS PERIOD TIME  86400.      1440.0      24.000      1.0000     2.73785E-03
         TOTAL TIME 2.59200E+05  4320.0      72.000      3.0000     8.21355E-03


end timestep


start timestep kper="4" kstp="1" mode="normal"


 OUTPUT CONTROL FOR STRESS PERIOD 4 IS REPEATED USING SETTINGS FROM A PREVIOUS STRESS PERIOD.


 STRESS PERIOD 4 IS TRANSIENT


 OPENED freyberg6.wel_stress_period_data_4.txt
 FILE TYPE:OPEN/CLOSE   UNIT 1064   STATUS:OLD                 
 FORMAT:FORMATTED              ACCESS:SEQUENTIAL          
 ACTION:READ                


 REUSING GHBS FROM LAST STRESS PERIOD

 OPENED freyberg6.rcha_recharge_4.txt
 FILE TYPE:OPEN/CLOSE   UNIT 1065   STATUS:OLD                 
 FORMAT:FORMATTED              ACCESS:SEQUENTIAL          
 ACTION:READ                


 REUSING SFRS FROM LAST STRESS PERIOD
 UBDSV1 SAVING     FLOW-JA-FACE ON UNIT   1052 AT TIME STEP      1, STRESS PERIOD      4
 UBDSV06 SAVING              GHB IN MODEL FREYBERG6        PACKAGE FREYBERG6       CONNECTED TO MODEL FREYBERG6        PACKAGE GHB-1            ON UNIT   1052 AT TIME STEP      1, STRESS PERIOD      4
 UBDSV06 SAVING              SFR IN MODEL FREYBERG6        PACKAGE FREYBERG6       CONNECTED TO MODEL FREYBERG6        PACKAGE SFR_1            ON UNIT   1052 AT TIME STEP      1, STRESS PERIOD      4

 GHB PACKAGE (GHB-1) FLOW RATES   PERIOD      4   STEP        1
 -----------------------------------------------
   NUMBER   CELLID                    RATE      
 -----------------------------------------------
     1      (1,120,16)           -33.561165     
     2      (1,120,17)           -33.551722     
     3      (1,120,18)           -33.550131     
     4      (1,120,19)           -33.501745     
     5      (1,120,20)           -33.479768     
     6      (1,120,21)           -33.441827     
     7      (1,120,22)           -33.345556     
     8      (1,120,23)           -33.259261     
     9      (1,120,24)           -33.125466     
     10     (1,120,25)           -32.965280     
     11     (1,120,26)           -32.791979     
     12     (1,120,27)           -32.623256     
     13     (1,120,28)           -32.433548     
     14     (1,120,29)           -32.269760     
     15     (1,120,30)           -32.100550     
     16     (1,120,31)           -31.908498     
     17     (1,120,32)           -31.732932     
     18     (1,120,33)           -31.548015     
     19     (1,120,34)           -31.352522     
     20     (1,120,35)           -31.164965     
     21     (1,120,36)           -30.977988     
     22     (1,120,37)           -30.805450     
     23     (1,120,38)           -30.636045     
     24     (1,120,39)           -30.483514     
     25     (1,120,40)           -30.347807     
     26     (1,120,41)           -30.228924     
     27     (1,120,42)           -30.127417     
     28     (1,120,43)           -30.039927     
     29     (1,120,44)           -29.972937     
     30     (1,120,45)           -29.921007     
     31     (1,120,46)           -29.854461     
     32     (1,120,47)           -30.557379     
     33     (1,120,48)           -29.932589     
 -----------------------------------------------




 HEAD WILL BE SAVED ON UNIT 1053 AT END OF TIME STEP    1, STRESS PERIOD    4


  SFR_1 BUDGET FOR ENTIRE MODEL AT END OF TIME STEP    1, STRESS PERIOD   4
  ------------------------------------------------------------------------------

     CUMULATIVE SFR_1      L**3       RATES FOR THIS TIME STEP      L**3/T
     ------------------                 ------------------------

           IN:                                      IN:
           ---                                      ---
                 GWF =       10251.7568                   GWF =        2702.5321
            RAINFALL =           0.0000              RAINFALL =           0.0000
         EVAPORATION =           0.0000           EVAPORATION =           0.0000
              RUNOFF =           0.0000                RUNOFF =           0.0000
          EXT-INFLOW =        2000.0000            EXT-INFLOW =         500.0000
         EXT-OUTFLOW =           0.0000           EXT-OUTFLOW =           0.0000
             STORAGE =           0.0000               STORAGE =           0.0000

            TOTAL IN =       12251.7568              TOTAL IN =        3202.5321

          OUT:                                     OUT:
          ----                                     ----
                 GWF =           6.1669                   GWF =           1.4498
            RAINFALL =           0.0000              RAINFALL =           0.0000
[...]
          EXT-INFLOW =       11500.0000            EXT-INFLOW =         500.0000
         EXT-OUTFLOW =           0.0000           EXT-OUTFLOW =           0.0000
             STORAGE =           0.0000               STORAGE =           0.0000

            TOTAL IN =       74981.5136              TOTAL IN =        3106.4361

          OUT:                                     OUT:
          ----                                     ----
                 GWF =          35.0272                   GWF =           1.7147
            RAINFALL =           0.0000              RAINFALL =           0.0000
         EVAPORATION =           0.0000           EVAPORATION =           0.0000
              RUNOFF =           0.0000                RUNOFF =           0.0000
          EXT-INFLOW =           0.0000            EXT-INFLOW =           0.0000
         EXT-OUTFLOW =       74946.4865           EXT-OUTFLOW =        3104.7215
             STORAGE =           0.0000               STORAGE =           0.0000

           TOTAL OUT =       74981.5136             TOTAL OUT =        3106.4361

            IN - OUT =      -1.4552E-11              IN - OUT =      -9.0949E-13

 PERCENT DISCREPANCY =          -0.00     PERCENT DISCREPANCY =          -0.00



  VOLUME BUDGET FOR ENTIRE MODEL AT END OF TIME STEP    1, STRESS PERIOD  23
  ---------------------------------------------------------------------------------------------------

     CUMULATIVE VOLUME      L**3       RATES FOR THIS TIME STEP      L**3/T          PACKAGE NAME    
     ------------------                 ------------------------                     ----------------

           IN:                                      IN:
           ---                                      ---
              STO-SS =         712.2057                STO-SS =         107.3496     STORAGE                          
              STO-SY =       24231.1342                STO-SY =        3655.6918     STORAGE                          
                 WEL =           0.0000                   WEL =           0.0000     WEL_0                            
                 GHB =           0.0000                   GHB =           0.0000     GHB-1                            
                RCHA =      110263.9616                  RCHA =         689.2806     RCHA_0                           
                 SFR =          35.0271                   SFR =           1.7147     SFR_1                            

            TOTAL IN =      135242.3286              TOTAL IN =        4454.0368

          OUT:                                     OUT:
          ----                                     ----
              STO-SS =         768.0291                STO-SS =           0.0000     STORAGE                          
              STO-SY =       26293.7514                STO-SY =           0.0000     STORAGE                          
                 WEL =       20710.6181                   WEL =         900.4374     WEL_0                            
                 GHB =       23988.1724                   GHB =         947.0036     GHB-1                            
                RCHA =           0.0000                  RCHA =           0.0000     RCHA_0                           
                 SFR =       63481.5379                   SFR =        2606.4351     SFR_1                            

           TOTAL OUT =      135242.1091             TOTAL OUT =        4453.8761

            IN - OUT =           0.2195              IN - OUT =           0.1606

 PERCENT DISCREPANCY =           0.00     PERCENT DISCREPANCY =           0.00




         TIME SUMMARY AT END OF TIME STEP    1 IN STRESS PERIOD   23
                    SECONDS     MINUTES      HOURS       DAYS        YEARS
                    -----------------------------------------------------------
   TIME STEP LENGTH  86400.      1440.0      24.000      1.0000     2.73785E-03
 STRESS PERIOD TIME  86400.      1440.0      24.000      1.0000     2.73785E-03
         TOTAL TIME 1.98720E+06  33120.      552.00      23.000     6.29706E-02


end timestep


start timestep kper="24" kstp="1" mode="normal"


 OUTPUT CONTROL FOR STRESS PERIOD 24 IS REPEATED USING SETTINGS FROM A PREVIOUS STRESS PERIOD.


 STRESS PERIOD 24 IS TRANSIENT


 OPENED freyberg6.wel_stress_period_data_24.txt
 FILE TYPE:OPEN/CLOSE   UNIT 1104   STATUS:OLD                 
 FORMAT:FORMATTED              ACCESS:SEQUENTIAL          
 ACTION:READ                


 REUSING GHBS FROM LAST STRESS PERIOD

 OPENED freyberg6.rcha_recharge_24.txt
 FILE TYPE:OPEN/CLOSE   UNIT 1105   STATUS:OLD                 
 FORMAT:FORMATTED              ACCESS:SEQUENTIAL          
 ACTION:READ                


 REUSING SFRS FROM LAST STRESS PERIOD
 UBDSV1 SAVING     FLOW-JA-FACE ON UNIT   1052 AT TIME STEP      1, STRESS PERIOD     24
 UBDSV06 SAVING              GHB IN MODEL FREYBERG6        PACKAGE FREYBERG6       CONNECTED TO MODEL FREYBERG6        PACKAGE GHB-1            ON UNIT   1052 AT TIME STEP      1, STRESS PERIOD     24
 UBDSV06 SAVING              SFR IN MODEL FREYBERG6        PACKAGE FREYBERG6       CONNECTED TO MODEL FREYBERG6        PACKAGE SFR_1            ON UNIT   1052 AT TIME STEP      1, STRESS PERIOD     24

 GHB PACKAGE (GHB-1) FLOW RATES   PERIOD     24   STEP        1
 -----------------------------------------------
   NUMBER   CELLID                    RATE      
 -----------------------------------------------
     1      (1,120,16)           -27.979169     
     2      (1,120,17)           -27.964461     
     3      (1,120,18)           -27.950344     
     4      (1,120,19)           -27.891021     
     5      (1,120,20)           -27.850304     
     6      (1,120,21)           -27.791590     
     7      (1,120,22)           -27.680157     
     8      (1,120,23)           -27.575039     
     9      (1,120,24)           -27.426065     
     10     (1,120,25)           -27.251995     
     11     (1,120,26)           -27.064957     
     12     (1,120,27)           -26.880842     
     13     (1,120,28)           -26.679139     
     14     (1,120,29)           -26.500252     
     15     (1,120,30)           -26.316962     
     16     (1,120,31)           -26.115440     
     17     (1,120,32)           -25.929435     
     18     (1,120,33)           -25.736731     
     19     (1,120,34)           -25.536917     
     20     (1,120,35)           -25.346146     
     21     (1,120,36)           -25.158483     
     22     (1,120,37)           -24.985952     
     23     (1,120,38)           -24.819470     
     24     (1,120,39)           -24.671193     
     25     (1,120,40)           -24.541400     
     26     (1,120,41)           -24.430365     
     27     (1,120,42)           -24.338793     
     28     (1,120,43)           -24.264036     
     29     (1,120,44)           -24.211613     
     30     (1,120,45)           -24.176938     
     31     (1,120,46)           -24.140346     
     32     (1,120,47)           -25.228404     
     33     (1,120,48)           -24.221500     
 -----------------------------------------------




 HEAD WILL BE SAVED ON UNIT 1053 AT END OF TIME STEP    1, STRESS PERIOD   24


  SFR_1 BUDGET FOR ENTIRE MODEL AT END OF TIME STEP    1, STRESS PERIOD  24
  ------------------------------------------------------------------------------

     CUMULATIVE SFR_1      L**3       RATES FOR THIS TIME STEP      L**3/T
     ------------------                 ------------------------

           IN:                                      IN:
           ---                                      ---
                 GWF =       65850.4144                   GWF =        2368.9007
            RAINFALL =           0.0000              RAINFALL =           0.0000
         EVAPORATION =           0.0000           EVAPORATION =           0.0000
              RUNOFF =           0.0000                RUNOFF =           0.0000
          EXT-INFLOW =       12000.0000            EXT-INFLOW =         500.0000
         EXT-OUTFLOW =           0.0000           EXT-OUTFLOW =           0.0000
             STORAGE =           0.0000               STORAGE =           0.0000

            TOTAL IN =       77850.4144              TOTAL IN =        2868.9007

          OUT:                                     OUT:
          ----                                     ----
                 GWF =          36.8089                   GWF =           1.7817
            RAINFALL =           0.0000              RAINFALL =           0.0000
         EVAPORATION =           0.0000           EVAPORATION =           0.0000
              RUNOFF =           0.0000                RUNOFF =           0.0000
          EXT-INFLOW =           0.0000            EXT-INFLOW =           0.0000
         EXT-OUTFLOW =       77813.6055           EXT-OUTFLOW =        2867.1190
             STORAGE =           0.0000               STORAGE =           0.0000

           TOTAL OUT =       77850.4144             TOTAL OUT =        2868.9007

            IN - OUT =           0.0000              IN - OUT =           0.0000

 PERCENT DISCREPANCY =           0.00     PERCENT DISCREPANCY =           0.00



  VOLUME BUDGET FOR ENTIRE MODEL AT END OF TIME STEP    1, STRESS PERIOD  24
  ---------------------------------------------------------------------------------------------------

     CUMULATIVE VOLUME      L**3       RATES FOR THIS TIME STEP      L**3/T          PACKAGE NAME    
     ------------------                 ------------------------                     ----------------

           IN:                                      IN:
           ---                                      ---
              STO-SS =         821.2163                STO-SS =         109.0107     STORAGE                          
              STO-SY =       27972.5221                STO-SY =        3741.3879     STORAGE                          
                 WEL =           0.0000                   WEL =           0.0000     WEL_0                            
                 GHB =           0.0000                   GHB =           0.0000     GHB-1                            
                RCHA =      110539.7952                  RCHA =         275.8336     RCHA_0                           
                 SFR =          36.8088                   SFR =           1.7817     SFR_1                            

            TOTAL IN =      139370.3425              TOTAL IN =        4128.0139

          OUT:                                     OUT:
          ----                                     ----
              STO-SS =         768.0291                STO-SS =           0.0000     STORAGE                          
              STO-SY =       26293.7514                STO-SY =           0.0000     STORAGE                          
                 WEL =       21610.9742                   WEL =         900.3561     WEL_0                            
                 GHB =       24846.8279                   GHB =         858.6555     GHB-1                            
                RCHA =           0.0000                  RCHA =           0.0000     RCHA_0                           
                 SFR =       65850.4389                   SFR =        2368.9009     SFR_1                            

           TOTAL OUT =      139370.0215             TOTAL OUT =        4127.9125

            IN - OUT =           0.3210              IN - OUT =           0.1015

 PERCENT DISCREPANCY =           0.00     PERCENT DISCREPANCY =           0.00




         TIME SUMMARY AT END OF TIME STEP    1 IN STRESS PERIOD   24
                    SECONDS     MINUTES      HOURS       DAYS        YEARS
                    -----------------------------------------------------------
   TIME STEP LENGTH  86400.      1440.0      24.000      1.0000     2.73785E-03
 STRESS PERIOD TIME  86400.      1440.0      24.000      1.0000     2.73785E-03
         TOTAL TIME 2.07360E+06  34560.      576.00      24.000     6.57084E-02


end timestep


start timestep kper="25" kstp="1" mode="normal"


 OUTPUT CONTROL FOR STRESS PERIOD 25 IS REPEATED USING SETTINGS FROM A PREVIOUS STRESS PERIOD.


 STRESS PERIOD 25 IS TRANSIENT


 OPENED freyberg6.wel_stress_period_data_25.txt
 FILE TYPE:OPEN/CLOSE   UNIT 1106   STATUS:OLD                 
 FORMAT:FORMATTED              ACCESS:SEQUENTIAL          
 ACTION:READ                


 REUSING GHBS FROM LAST STRESS PERIOD

 OPENED freyberg6.rcha_recharge_25.txt
 FILE TYPE:OPEN/CLOSE   UNIT 1107   STATUS:OLD                 
 FORMAT:FORMATTED              ACCESS:SEQUENTIAL          
 ACTION:READ                


 REUSING SFRS FROM LAST STRESS PERIOD
 UBDSV1 SAVING     FLOW-JA-FACE ON UNIT   1052 AT TIME STEP      1, STRESS PERIOD     25
 UBDSV06 SAVING              GHB IN MODEL FREYBERG6        PACKAGE FREYBERG6       CONNECTED TO MODEL FREYBERG6        PACKAGE GHB-1            ON UNIT   1052 AT TIME STEP      1, STRESS PERIOD     25
 UBDSV06 SAVING              SFR IN MODEL FREYBERG6        PACKAGE FREYBERG6       CONNECTED TO MODEL FREYBERG6        PACKAGE SFR_1            ON UNIT   1052 AT TIME STEP      1, STRESS PERIOD     25

 GHB PACKAGE (GHB-1) FLOW RATES   PERIOD     25   STEP        1
 -----------------------------------------------
   NUMBER   CELLID                    RATE      
 -----------------------------------------------
     1      (1,120,16)           -26.281117     
     2      (1,120,17)           -26.266434     
     3      (1,120,18)           -26.251413     
     4      (1,120,19)           -26.193320     
     5      (1,120,20)           -26.152033     
     6      (1,120,21)           -26.093230     
     7      (1,120,22)           -25.984673     
     8      (1,120,23)           -25.881823     
     9      (1,120,24)           -25.737632     
     10     (1,120,25)           -25.569711     
     11     (1,120,26)           -25.389464     
     12     (1,120,27)           -25.211833     
     13     (1,120,28)           -25.017832     
     14     (1,120,29)           -24.845361     
     15     (1,120,30)           -24.668941     
     16     (1,120,31)           -24.475813     
     17     (1,120,32)           -24.297627     
     18     (1,120,33)           -24.113623     
     19     (1,120,34)           -23.923508     
     20     (1,120,35)           -23.742430     
     21     (1,120,36)           -23.564884     
     22     (1,120,37)           -23.402126     
     23     (1,120,38)           -23.245701     
     24     (1,120,39)           -23.106976     
     25     (1,120,40)           -22.986206     
     26     (1,120,41)           -22.883624     
     27     (1,120,42)           -22.799845     
     28     (1,120,43)           -22.732336     
     29     (1,120,44)           -22.686165     
     30     (1,120,45)           -22.657009     
     31     (1,120,46)           -22.627864     
     32     (1,120,47)           -23.756553     
     33     (1,120,48)           -22.706524     
 -----------------------------------------------




 HEAD WILL BE SAVED ON UNIT 1053 AT END OF TIME STEP    1, STRESS PERIOD   25


  SFR_1 BUDGET FOR ENTIRE MODEL AT END OF TIME STEP    1, STRESS PERIOD  25
  ------------------------------------------------------------------------------

     CUMULATIVE SFR_1      L**3       RATES FOR THIS TIME STEP      L**3/T
     ------------------                 ------------------------

           IN:                                      IN:
           ---                                      ---
                 GWF =       68048.8470                   GWF =        2198.4327
            RAINFALL =           0.0000              RAINFALL =           0.0000
         EVAPORATION =           0.0000           EVAPORATION =           0.0000
              RUNOFF =           0.0000                RUNOFF =           0.0000
          EXT-INFLOW =       12500.0000            EXT-INFLOW =         500.0000
         EXT-OUTFLOW =           0.0000           EXT-OUTFLOW =           0.0000
             STORAGE =           0.0000               STORAGE =           0.0000

            TOTAL IN =       80548.8470              TOTAL IN =        2698.4327

          OUT:                                     OUT:
          ----                                     ----
                 GWF =          38.5979                   GWF =           1.7890
            RAINFALL =           0.0000              RAINFALL =           0.0000
         EVAPORATION =           0.0000           EVAPORATION =           0.0000
              RUNOFF =           0.0000                RUNOFF =           0.0000
          EXT-INFLOW =           0.0000            EXT-INFLOW =           0.0000
         EXT-OUTFLOW =       80510.2491           EXT-OUTFLOW =        2696.6436
             STORAGE =           0.0000               STORAGE =           0.0000

           TOTAL OUT =       80548.8470             TOTAL OUT =        2698.4327

            IN - OUT =      -1.4552E-11              IN - OUT =           0.0000

 PERCENT DISCREPANCY =          -0.00     PERCENT DISCREPANCY =           0.00



  VOLUME BUDGET FOR ENTIRE MODEL AT END OF TIME STEP    1, STRESS PERIOD  25
  ---------------------------------------------------------------------------------------------------

     CUMULATIVE VOLUME      L**3       RATES FOR THIS TIME STEP      L**3/T          PACKAGE NAME    
     ------------------                 ------------------------                     ----------------

           IN:                                      IN:
           ---                                      ---
              STO-SS =         904.1507                STO-SS =          82.9343     STORAGE                          
              STO-SY =       30845.3809                STO-SY =        2872.8587     STORAGE                          
                 WEL =           0.0000                   WEL =           0.0000     WEL_0                            
                 GHB =           0.0000                   GHB =           0.0000     GHB-1                            
                RCHA =      111486.3357                  RCHA =         946.5405     RCHA_0                           
                 SFR =          38.5979                   SFR =           1.7890     SFR_1                            

            TOTAL IN =      143274.4651              TOTAL IN =        3904.1226

          OUT:                                     OUT:
          ----                                     ----
              STO-SS =         768.0291                STO-SS =           0.0000     STORAGE                          
              STO-SY =       26293.7514                STO-SY =           0.0000     STORAGE                          
                 WEL =       22511.3839                   WEL =         900.4096     WEL_0                            
                 GHB =       25652.0815                   GHB =         805.2536     GHB-1                            
                RCHA =           0.0000                  RCHA =           0.0000     RCHA_0                           
                 SFR =       68048.8706                   SFR =        2198.4317     SFR_1                            

           TOTAL OUT =      143274.1165             TOTAL OUT =        3904.0950

            IN - OUT =           0.3486              IN - OUT =       2.7597E-02

 PERCENT DISCREPANCY =           0.00     PERCENT DISCREPANCY =           0.00




         TIME SUMMARY AT END OF TIME STEP    1 IN STRESS PERIOD   25
                    SECONDS     MINUTES      HOURS       DAYS        YEARS
                    -----------------------------------------------------------
   TIME STEP LENGTH  86400.      1440.0      24.000      1.0000     2.73785E-03
 STRESS PERIOD TIME  86400.      1440.0      24.000      1.0000     2.73785E-03
         TOTAL TIME 2.16000E+06  36000.      600.00      25.000     6.84463E-02


end timestep

