                                   MODFLOW 6
                U.S. GEOLOGICAL SURVEY MODULAR HYDROLOGIC MODEL
                   VERSION 6.3.0 release candidate 07/30/2021
                               ***DEVELOP MODE***

   MODFLOW 6 compiled Dec 29 2021 09:30:50 with Intel(R) Fortran Intel(R) 64
   Compiler for applications running on Intel(R) 64, Version 19.1.3.301 Build
                                20200925_000000

This software is preliminary or provisional and is subject to 
revision. It is being provided to meet the need for timely best 
science. The software has not received final approval by the U.S. 
Geological Survey (USGS). No warranty, expressed or implied, is made 
by the USGS or the U.S. Government as to the functionality of the 
software and related material nor shall the fact of release 
constitute any such warranty. The software is provided on the 
condition that neither the USGS nor the U.S. Government shall be held 
liable for any damages resulting from the authorized or unauthorized 
use of the software.


As a work of the United States Government, this USGS product is 
in the public domain within the United States. You can copy, 
modify, distribute, and perform the work, even for commercial 
purposes, all without asking permission. Additionally, USGS 
waives copyright and related rights in the work worldwide 
through CC0 1.0 Universal Public Domain Dedication 
(https://creativecommons.org/publicdomain/zero/1.0/).

The following GNU Lesser General Public License (LGPL) libraries
are used in this USGS product:

    SPARSKIT version 2.0
      ilut, luson, and qsplit 
      (https://www-users.cse.umn.edu/~saad/software/SPARSKIT/)

    RCM - Reverse Cuthill McKee Ordering
      (https://people.math.sc.edu/Burkardt/f_src/rcm/rcm.html)

    BLAS - Basic Linear Algebra Subprograms Level 1
      (https://people.math.sc.edu/Burkardt/f_src/blas1_d/blas1_d.html)

    SPARSEKIT - Sparse Matrix Utility Package
      amux, dperm, dvperm, rperm, and cperm
      (https://people.sc.fsu.edu/~jburkardt/f77_src/sparsekit/sparsekit.html)

The following BSD-3 License libraries are used in this USGS product:

    Modern Fortran DAG Library
      Copyright (c) 2018, Jacob Williams
      All rights reserved.
      (https://github.com/jacobwilliams/daglib)

MODFLOW 6 compiler options: -I./obj_temp -O2 -no-heap-arrays -fpe0 -traceback
-fpp -module ./mod_temp/ -c -o ./obj_temp/compilerversion.o

System command used to initiate simulation:
./mf6

MODFLOW was compiled using uniform precision.

Real Variables
  KIND: 8
  TINY (smallest non-zero value):    2.225074-308
  HUGE (largest value):    1.797693+308
  PRECISION: 15
  BIT SIZE: 64

Integer Variables
  KIND: 4
  HUGE (largest value): 2147483647
  BIT SIZE: 32

Long Integer Variables
  KIND: 8
  HUGE (largest value): 9223372036854775807
  BIT SIZE: 64

Logical Variables
  KIND: 4
  BIT SIZE: 32
 

 OPENED mfsim.nam
 FILE TYPE:NAM   UNIT 1001   STATUS:OLD                 
 FORMAT:FORMATTED              ACCESS:SEQUENTIAL          
 ACTION:READ                

 # File generated by Flopy version 3.3.6 on 09/23/2023 at 12:55:49.

 READING SIMULATION OPTIONS
    SIMULATION WILL CONTINUE EVEN IF THERE IS NONCONVERGENCE.
 END OF SIMULATION OPTIONS

 READING SIMULATION TIMING

 OPENED freyberg6.tdis
 FILE TYPE:TDIS   UNIT 1002   STATUS:OLD                 
 FORMAT:FORMATTED              ACCESS:SEQUENTIAL          
 ACTION:READ                


 TDIS -- TEMPORAL DISCRETIZATION PACKAGE,
 VERSION 1 : 11/13/2014 - INPUT READ FROM UNIT 1002
 # File generated by Flopy version 3.3.6 on 09/23/2023 at 12:55:49.
 PROCESSING TDIS OPTIONS
    SIMULATION TIME UNIT IS DAYS
 END OF TDIS OPTIONS
 PROCESSING TDIS DIMENSIONS
   25 STRESS PERIOD(S) IN SIMULATION
 END OF TDIS DIMENSIONS
 PROCESSING TDIS PERIODDATA


 STRESS PERIOD     LENGTH       TIME STEPS     MULTIPLIER FOR DELT
 ----------------------------------------------------------------------------
        1         1.000000          1                    1.000
        2         1.000000          1                    1.000
        3         1.000000          1                    1.000
        4         1.000000          1                    1.000
        5         1.000000          1                    1.000
        6         1.000000          1                    1.000
        7         1.000000          1                    1.000
        8         1.000000          1                    1.000
        9         1.000000          1                    1.000
       10         1.000000          1                    1.000
       11         1.000000          1                    1.000
       12         1.000000          1                    1.000
       13         1.000000          1                    1.000
       14         1.000000          1                    1.000
       15         1.000000          1                    1.000
       16         1.000000          1                    1.000
       17         1.000000          1                    1.000
       18         1.000000          1                    1.000
       19         1.000000          1                    1.000
       20         1.000000          1                    1.000
       21         1.000000          1                    1.000
       22         1.000000          1                    1.000
       23         1.000000          1                    1.000
       24         1.000000          1                    1.000
       25         1.000000          1                    1.000
 END OF TDIS PERIODDATA
 END OF SIMULATION TIMING

 READING SIMULATION MODELS
    GWF6 model FREYBERG6 will be created as model 1
 END OF SIMULATION MODELS

 READING SIMULATION EXCHANGES
 END OF SIMULATION EXCHANGES

 READING SOLUTIONGROUP

 Creating solution: SLN_1           

 OPENED freyberg6.ims
 FILE TYPE:IMS   UNIT 1015   STATUS:OLD                 
 FORMAT:FORMATTED              ACCESS:SEQUENTIAL          
 ACTION:READ                

 END OF SIMULATION SOLUTIONGROUP

PROCESSING MODEL CONNECTIONS

 IMS -- ITERATIVE MODEL SOLUTION PACKAGE, VERSION 6, 4/28/2017
         INPUT READ FROM UNIT 1015
 # File generated by Flopy version 3.3.6 on 09/23/2023 at 12:55:49.

 PROCESSING IMS OPTIONS
 SIMPLE OPTION:
 DEFAULT SOLVER INPUT VALUES FOR FAST SOLUTIONS
 END OF IMS OPTIONS

 PROCESSING IMS NONLINEAR
 END OF IMS NONLINEAR DATA
 **UNDER-RELAXATION WILL BE USED***
 
 ***IMS LINEAR SOLVER WILL BE USED***

 IMSLINEAR -- UNSTRUCTURED LINEAR SOLUTION PACKAGE, VERSION 8, 04/28/2017

 PROCESSING LINEAR DATA
 END OF LINEAR DATA
 
 An asymmetric matrix will be solved

 OUTER ITERATION CONVERGENCE CRITERION    (DVCLOSE) =    0.100000E-04
 MAXIMUM NUMBER OF OUTER ITERATIONS        (MXITER) = 100
 SOLVER PRINTOUT INDEX                     (IPRIMS) = 1
 NONLINEAR ITERATION METHOD            (NONLINMETH) = 3
 LINEAR SOLUTION METHOD                   (LINMETH) = 1
 UNDER-RELAXATION WEIGHT REDUCTION FACTOR   (THETA) =    0.850000E+00
 UNDER-RELAXATION WEIGHT INCREASE INCREMENT (KAPPA) =    0.100000E-04
 UNDER-RELAXATION PREVIOUS HISTORY FACTOR   (GAMMA) =    0.000000E+00
 UNDER-RELAXATION MOMENTUM TERM         (AMOMENTUM) =    0.100000E+00
 MAXIMUM NUMBER OF BACKTRACKS            (NUMTRACK) = 50
 BACKTRACKING TOLERANCE FACTOR               (BTOL) =    0.110000E+01
 BACKTRACKING REDUCTION FACTOR             (BREDUC) =    0.700000E+00
 BACKTRACKING RESIDUAL LIMIT              (RES_LIM) =    0.100000E+03

       SOLUTION BY THE BICONJUGATE-GRADIENT STABILIZED METHOD
 ------------------------------------------------------------------
 MAXIMUM OF 100 CALLS OF SOLUTION ROUTINE
 MAXIMUM OF 50 INTERNAL ITERATIONS PER CALL TO SOLUTION ROUTINE
 LINEAR ACCELERATION METHOD            = BCGS      
 MATRIX PRECONDITIONING TYPE           = INCOMPLETE LUT      
 MATRIX SCALING APPROACH               = NO SCALING          
 MATRIX REORDERING APPROACH            = RCM ORDERING             
 NUMBER OF ORTHOGONALIZATIONS          = 2
 HEAD CHANGE CRITERION FOR CLOSURE     =    0.10000E-05
 RESIDUAL CHANGE CRITERION FOR CLOSURE =    0.10000E+00
 RESIDUAL CONVERGENCE OPTION           = 0
 RESIDUAL CONVERGENCE NORM             = INFINITY NORM   
 RELAXATION FACTOR                     =    0.00000E+00
 NUMBER OF LEVELS                      =              1
 DROP TOLERANCE                        =    0.10000E-02


 
    Solving:  Stress period:     1    Time step:     1
 
1
                            STRESS PERIOD NO. 1, LENGTH =   1.000000    
                            -----------------------------------------------
                            NUMBER OF TIME STEPS = 1
                            MULTIPLIER FOR DELT =     1.000
                            INITIAL TIME STEP SIZE =   1.000000    



 PSEUDO-TRANSIENT CONTINUATION WILL BE APPLIED TO MODEL 1 ("FREYBERG6") DURING THIS TIME STEP

 SLN_1 OUTER ITERATION SUMMARY
 ----------------------------------------------------------------------------------------------------------------------------------------------------------------
                                OUTER      INNER  BACKTRACK  BACKTRACK        INCOMING        OUTGOING                    STEP   MAXIMUM CHANGE MODEL-(CELLID) OR
 OUTER ITERATION STEP       ITERATION  ITERATION       FLAG ITERATIONS        RESIDUAL        RESIDUAL  MAXIMUM CHANGE SUCCESS             MODEL-PACKAGE-(NUMBER)
 ----------------------------------------------------------------------------------------------------------------------------------------------------------------
 Backtracking                       1                     0          0       3495699.6       3495699.6                       *                                   
 Model                              1         20                                                             568.21915                           1_GWF-(3,118,46)
 Backtracking                       2                     0          0       611312.29       611312.29                       *                                   
 Model                              2         44                                                             511.07656                           1_GWF-(2,120,47)
 Backtracking                       3                     0          0       142053.29       142053.29                       *                                   
 Model                              3         50                                                             488.84750                           1_GWF-(1,119,48)
 Backtracking                       4                     0          0       82871.276       82871.276                       *                                   
 Model                              4         50                                                             183.73841                           1_GWF-(1,119,48)
 Backtracking                       5                     0          0       38913.938       38913.938                       *                                   
 Model                              5         50                                                             50.965527                           1_GWF-(1,119,48)
 Backtracking                       6                     0          0       13598.938       13598.938                       *                                   
 Model                              6         50                                                             12.966944                           1_GWF-(1,117,47)
 Backtracking                       7                     0          0       9713.9553       9713.9553                       *                                   
 Model                              7         50                                                             3.5178589                           1_GWF-(1,117,51)
 Backtracking                       8                     0          0       8010.2664       8010.2664                       *                                   
 Model                              8         50                                                             1.5057650                           1_GWF-(1,109,54)
 Backtracking                       9                     0          0       5507.4380       5507.4380                       *                                   
 Model                              9         50                                                            0.71931896                           1_GWF-(1,110,57)
 Backtracking                      10                     0          0       4222.2778       4222.2778                       *                                   
 Model                             10         50                                                           -0.57487458                             1_GWF-(1,35,1)
 Backtracking                      11                     0          0       2803.4916       2803.4916                       *                                   
 Model                             11         50                                                           -0.43401894                             1_GWF-(1,30,1)
 Backtracking                      12                     0          0       1931.9465       1931.9465                       *                                   
 Model                             12         50                                                           -0.30662967                             1_GWF-(1,26,1)
 Backtracking                      13                     0          0       1365.0699       1365.0699                       *                                   
 Model                             13         50                                                           -0.18640814                              1_GWF-(1,3,2)
 Backtracking                      14                     0          0       1017.5614       1017.5614                       *                                   
 Model                             14         50                                                           -0.12104060                             1_GWF-(1,23,1)
 Backtracking                      15                     0          0       797.50520       797.50520                       *                                   
 Model                             15         50                                                       -5.79781545E-02                             1_GWF-(3,1,37)
 Backtracking                      16                     0          0       459.50514       459.50514                       *                                   
 Model                             16         50                                                       -3.98712072E-02                             1_GWF-(1,24,1)
 Backtracking                      17                     0          0       358.87816       358.87816                       *                                   
 Model                             17         50                                                       -2.00345131E-02                             1_GWF-(3,1,37)
 Backtracking                      18                     0          0       184.44041       184.44041                       *                                   
 Model                             18         50                                                       -2.14333033E-02                             1_GWF-(1,24,1)
 Backtracking                      19                     0          0       142.26948       142.26948                       *                                   
 Model                             19         50                                                       -1.70718771E-02                             1_GWF-(1,59,1)
 Backtracking                      20                     0          0       105.89559       105.89559                       *                                   
 Model                             20         50                                                       -7.53959179E-03                             1_GWF-(2,26,5)
 Backtracking                      21                     0          0       39.244143       39.244143                       *                                   
 Model                             21         50                                                       -4.65960867E-03                             1_GWF-(1,16,1)
 Backtracking                      22                     0          0       25.792248       25.792248                       *                                   
 Model                             22         26                                                       -1.09574370E-03                            1_GWF-(1,55,38)
 Backtracking                      23                     0          0       9.9463466       9.9463466                       *                                   
 Model                             23         50                                                       -2.37443088E-03                             1_GWF-(1,53,3)
 Backtracking                      24                     0          1       13.141360       11.050569                                                           
 Model                             24         50                                                       -1.18863620E-03                              1_GWF-(1,7,1)
 Backtracking                      25                     0          0       7.1074949       7.1074949                       *                                   
 Model                             25         23                                                       -2.80570587E-04                             1_GWF-(1,1,31)
 Backtracking                      26                     0          0       2.9767219       2.9767219                       *                                   
 Model                             26         35                                                       -1.02293972E-03                             1_GWF-(2,32,1)
 Backtracking                      27                     0          1       5.9145079       4.7695270                                                           
 Model                             27         15                                                       -9.82552204E-05                             1_GWF-(2,5,31)
 Backtracking                      28                     0          0       1.8204049       1.8204049                       *                                   
 Model                             28         41                                                       -5.24650938E-04                              1_GWF-(1,7,1)
 Backtracking                      29                     0          0       1.7123711       1.7123711                       *                                   
 Model                             29         26                                                       -1.99322757E-04                             1_GWF-(1,35,4)
 Backtracking                      30                     0          0       1.3536447       1.3536447                       *                                   
 Model                             30         31                                                       -2.12820690E-04                              1_GWF-(1,2,1)
 Backtracking                      31                     0          0       1.3294458       1.3294458                       *                                   
 Model                             31         10                                                       -3.22476321E-05                             1_GWF-(2,1,23)
 Backtracking                      32                     0          0      0.59294458      0.59294458                       *                                   
 Model                             32         28                                                       -1.55333625E-04                             1_GWF-(2,1,23)
 Backtracking                      33                     0          0      0.38320084      0.38320084                       *                                   
 Model                             33         28                                                       -1.12216598E-04                              1_GWF-(2,1,1)
 Backtracking                      34                     0          1      0.46939020      0.43115349                                                           
 Model                             34          7                                                       -1.18748722E-05                             1_GWF-(3,34,1)
 Backtracking                      35                     0          0      0.21976186      0.21976186                       *                                   
 Model                             35          4                                                       -5.59038577E-06       *                     1_GWF-(3,34,1)
 ----------------------------------------------------------------------------------------------------------------------------------------------------------------


 35 CALLS TO NUMERICAL SOLUTION IN TIME STEP 1 STRESS PERIOD 1
 1388 TOTAL ITERATIONS
 
    Solving:  Stress period:     2    Time step:     1
 
1
                            STRESS PERIOD NO. 2, LENGTH =   1.000000    
                            -----------------------------------------------
                            NUMBER OF TIME STEPS = 1
                            MULTIPLIER FOR DELT =     1.000
                            INITIAL TIME STEP SIZE =   1.000000    

 SLN_1 OUTER ITERATION SUMMARY
 ----------------------------------------------------------------------------------------------------------------------------------------------------------------
                                OUTER      INNER  BACKTRACK  BACKTRACK        INCOMING        OUTGOING                    STEP   MAXIMUM CHANGE MODEL-(CELLID) OR
 OUTER ITERATION STEP       ITERATION  ITERATION       FLAG ITERATIONS        RESIDUAL        RESIDUAL  MAXIMUM CHANGE SUCCESS             MODEL-PACKAGE-(NUMBER)
 ----------------------------------------------------------------------------------------------------------------------------------------------------------------
 Backtracking                       1                     0          0       15.360332       15.360332                       *                                   
 Model                              1         50                                                       -2.73907144E-02                             1_GWF-(1,49,4)
 Backtracking                       2                     0          0      0.52529701      0.52529701                       *                                   
 Model                              2         21                                                       -7.68803494E-04                           1_GWF-(1,114,47)
 Backtracking                       3                     0          0  3.35611866E-02  3.35611866E-02                       *                                   
 Model                              3         21                                                       -7.53020927E-05                            1_GWF-(3,92,30)
 Backtracking                       4                     1          1  3.74486695E-02  2.85517948E-02                                                           
 Model                              4         10                                                        1.82678817E-05                             1_GWF-(3,16,1)
 Backtracking                       5                     0          0  2.25806826E-02  2.25806826E-02                       *                                   
 Model                              5          8                                                       -9.62414313E-06       *                   1_GWF-(3,111,57)
 ----------------------------------------------------------------------------------------------------------------------------------------------------------------


 5 CALLS TO NUMERICAL SOLUTION IN TIME STEP 1 STRESS PERIOD 2
 110 TOTAL ITERATIONS
 
    Solving:  Stress period:     3    Time step:     1
 
1
                            STRESS PERIOD NO. 3, LENGTH =   1.000000    
                            -----------------------------------------------
                            NUMBER OF TIME STEPS = 1
                            MULTIPLIER FOR DELT =     1.000
                            INITIAL TIME STEP SIZE =   1.000000    

 SLN_1 OUTER ITERATION SUMMARY
 ----------------------------------------------------------------------------------------------------------------------------------------------------------------
                                OUTER      INNER  BACKTRACK  BACKTRACK        INCOMING        OUTGOING                    STEP   MAXIMUM CHANGE MODEL-(CELLID) OR
 OUTER ITERATION STEP       ITERATION  ITERATION       FLAG ITERATIONS        RESIDUAL        RESIDUAL  MAXIMUM CHANGE SUCCESS             MODEL-PACKAGE-(NUMBER)
 ----------------------------------------------------------------------------------------------------------------------------------------------------------------
 Backtracking                       1                     0          0       13.091319       13.091319                       *                                   
 Model                              1         50                                                        2.05951183E-02                             1_GWF-(1,3,60)
 Backtracking                       2                     0          0      0.46232317      0.46232317                       *                                   
 Model                              2         24                                                        6.82804476E-04                           1_GWF-(1,114,47)
 Backtracking                       3                     0          0  2.70669452E-02  2.70669452E-02                       *                                   
 Model                              3         13                                                       -3.36923390E-05                           1_GWF-(3,117,51)
 Backtracking                       4                     1          1  3.36333159E-02  2.53565323E-02                                                           
 Model                              4         12                                                       -1.39956946E-05                           1_GWF-(3,117,51)
 Backtracking                       5                     0          0  2.76378833E-02  2.76378833E-02                       *                                   
 Model                              5          2                                                        2.23385102E-06       *                    1_GWF-(1,35,25)
 ----------------------------------------------------------------------------------------------------------------------------------------------------------------


 5 CALLS TO NUMERICAL SOLUTION IN TIME STEP 1 STRESS PERIOD 3
 101 TOTAL ITERATIONS
 
    Solving:  Stress period:     4    Time step:     1
 
1
                            STRESS PERIOD NO. 4, LENGTH =   1.000000    
                            -----------------------------------------------
                            NUMBER OF TIME STEPS = 1
                            MULTIPLIER FOR DELT =     1.000
                            INITIAL TIME STEP SIZE =   1.000000    

 SLN_1 OUTER ITERATION SUMMARY
 ----------------------------------------------------------------------------------------------------------------------------------------------------------------
                                OUTER      INNER  BACKTRACK  BACKTRACK        INCOMING        OUTGOING                    STEP   MAXIMUM CHANGE MODEL-(CELLID) OR
 OUTER ITERATION STEP       ITERATION  ITERATION       FLAG ITERATIONS        RESIDUAL        RESIDUAL  MAXIMUM CHANGE SUCCESS             MODEL-PACKAGE-(NUMBER)
 ----------------------------------------------------------------------------------------------------------------------------------------------------------------
 Backtracking                       1                     0          0       34.746412       34.746412                       *                                   
 Model                              1         50                                                        6.29415940E-02                             1_GWF-(3,51,7)
 Backtracking                       2                     0          0       1.2801587       1.2801587                       *                                   
 Model                              2         38                                                        1.81708204E-03                           1_GWF-(1,111,47)
 Backtracking                       3                     0          0  6.81759912E-02  6.81759912E-02                       *                                   
 Model                              3         13                                                       -1.75152465E-04                             1_GWF-(3,1,32)
 Backtracking                       4                     0          1      0.12739690  9.31849553E-02                                                           
 Model                              4         17                                                       -8.60891766E-05                            1_GWF-(3,51,10)
 Backtracking                       5                     0          0  6.22765866E-02  6.22765866E-02                       *                                   
 Model                              5         16                                                       -2.00593370E-05                             1_GWF-(3,1,60)
 Backtracking                       6                     0          0  4.51772667E-02  4.51772667E-02                       *                                   
 Model                              6          4                                                       -4.43640514E-06       *                     1_GWF-(3,4,60)
 ----------------------------------------------------------------------------------------------------------------------------------------------------------------


 6 CALLS TO NUMERICAL SOLUTION IN TIME STEP 1 STRESS PERIOD 4
 138 TOTAL ITERATIONS
 
    Solving:  Stress period:     5    Time step:     1
 
1
                            STRESS PERIOD NO. 5, LENGTH =   1.000000    
                            -----------------------------------------------
                            NUMBER OF TIME STEPS = 1
                            MULTIPLIER FOR DELT =     1.000
                            INITIAL TIME STEP SIZE =   1.000000    

 SLN_1 OUTER ITERATION SUMMARY
 ----------------------------------------------------------------------------------------------------------------------------------------------------------------
                                OUTER      INNER  BACKTRACK  BACKTRACK        INCOMING        OUTGOING                    STEP   MAXIMUM CHANGE MODEL-(CELLID) OR
 OUTER ITERATION STEP       ITERATION  ITERATION       FLAG ITERATIONS        RESIDUAL        RESIDUAL  MAXIMUM CHANGE SUCCESS             MODEL-PACKAGE-(NUMBER)
 ----------------------------------------------------------------------------------------------------------------------------------------------------------------
 Backtracking                       1                     0          0       45.639710       45.639710                       *                                   
 Model                              1         50                                                        8.74674954E-02                             1_GWF-(1,49,5)
 Backtracking                       2                     0          0       1.5660068       1.5660068                       *                                   
 Model                              2         35                                                        2.14670009E-03                           1_GWF-(1,111,47)
 Backtracking                       3                     0          0  5.77735732E-02  5.77735732E-02                       *                                   
 Model                              3         16                                                       -9.54934924E-05                             1_GWF-(3,2,33)
 Backtracking                       4                     0          1      0.10645991  7.60279930E-02                                                           
 Model                              4         17                                                       -4.95585978E-05                             1_GWF-(3,52,9)
 Backtracking                       5                     0          0  6.98065405E-02  6.98065405E-02                       *                                   
 Model                              5          4                                                        3.91242577E-06       *                    1_GWF-(3,74,17)
 ----------------------------------------------------------------------------------------------------------------------------------------------------------------


 5 CALLS TO NUMERICAL SOLUTION IN TIME STEP 1 STRESS PERIOD 5
 122 TOTAL ITERATIONS
 
    Solving:  Stress period:     6    Time step:     1
 
1
                            STRESS PERIOD NO. 6, LENGTH =   1.000000    
                            -----------------------------------------------
                            NUMBER OF TIME STEPS = 1
                            MULTIPLIER FOR DELT =     1.000
                            INITIAL TIME STEP SIZE =   1.000000    

 SLN_1 OUTER ITERATION SUMMARY
 ----------------------------------------------------------------------------------------------------------------------------------------------------------------
                                OUTER      INNER  BACKTRACK  BACKTRACK        INCOMING        OUTGOING                    STEP   MAXIMUM CHANGE MODEL-(CELLID) OR
 OUTER ITERATION STEP       ITERATION  ITERATION       FLAG ITERATIONS        RESIDUAL        RESIDUAL  MAXIMUM CHANGE SUCCESS             MODEL-PACKAGE-(NUMBER)
 ----------------------------------------------------------------------------------------------------------------------------------------------------------------
 Backtracking                       1                     0          0       43.984541       43.984541                       *                                   
 Model                              1         50                                                        9.08596874E-02                             1_GWF-(3,47,8)
 Backtracking                       2                     0          0       1.5675068       1.5675068                       *                                   
 Model                              2         40                                                        4.03611166E-03                           1_GWF-(1,118,21)
 Backtracking                       3                     0          0  6.13479261E-02  6.13479261E-02                       *                                   
 Model                              3         18                                                       -1.29689051E-04                             1_GWF-(3,2,34)
 Backtracking                       4                     0          1      0.10127347  7.59610744E-02                                                           
 Model                              4         19                                                       -6.03441216E-05                             1_GWF-(3,53,8)
 Backtracking                       5                     0          0  4.76845142E-02  4.76845142E-02                       *                                   
 Model                              5          4                                                        3.60133722E-06       *                    1_GWF-(3,70,18)
 ----------------------------------------------------------------------------------------------------------------------------------------------------------------


 5 CALLS TO NUMERICAL SOLUTION IN TIME STEP 1 STRESS PERIOD 6
 131 TOTAL ITERATIONS
 
    Solving:  Stress period:     7    Time step:     1
 
1
                            STRESS PERIOD NO. 7, LENGTH =   1.000000    
                            -----------------------------------------------
                            NUMBER OF TIME STEPS = 1
                            MULTIPLIER FOR DELT =     1.000
                            INITIAL TIME STEP SIZE =   1.000000    

 SLN_1 OUTER ITERATION SUMMARY
 ----------------------------------------------------------------------------------------------------------------------------------------------------------------
                                OUTER      INNER  BACKTRACK  BACKTRACK        INCOMING        OUTGOING                    STEP   MAXIMUM CHANGE MODEL-(CELLID) OR
 OUTER ITERATION STEP       ITERATION  ITERATION       FLAG ITERATIONS        RESIDUAL        RESIDUAL  MAXIMUM CHANGE SUCCESS             MODEL-PACKAGE-(NUMBER)
 ----------------------------------------------------------------------------------------------------------------------------------------------------------------
 Backtracking                       1                     0          0       29.854004       29.854004                       *                                   
 Model                              1         50                                                        7.00407588E-02                            1_GWF-(3,44,10)
 Backtracking                       2                     0          0      0.91603402      0.91603402                       *                                   
 Model                              2         42                                                        1.76800744E-03                           1_GWF-(1,118,32)
 Backtracking                       3                     0          0  4.15450075E-02  4.15450075E-02                       *                                   
 Model                              3         15                                                       -9.29160939E-05                             1_GWF-(3,54,9)
 Backtracking                       4                     0          1  7.65517410E-02  5.59608667E-02                                                           
 Model                              4         17                                                       -5.23038319E-05                             1_GWF-(3,54,8)
 Backtracking                       5                     0          0  3.84943614E-02  3.84943614E-02                       *                                   
 Model                              5          3                                                       -2.37876628E-06       *                     1_GWF-(3,33,8)
 ----------------------------------------------------------------------------------------------------------------------------------------------------------------


 5 CALLS TO NUMERICAL SOLUTION IN TIME STEP 1 STRESS PERIOD 7
 127 TOTAL ITERATIONS
 
    Solving:  Stress period:     8    Time step:     1
 
1
                            STRESS PERIOD NO. 8, LENGTH =   1.000000    
                            -----------------------------------------------
                            NUMBER OF TIME STEPS = 1
                            MULTIPLIER FOR DELT =     1.000
                            INITIAL TIME STEP SIZE =   1.000000    

 SLN_1 OUTER ITERATION SUMMARY
 ----------------------------------------------------------------------------------------------------------------------------------------------------------------
                                OUTER      INNER  BACKTRACK  BACKTRACK        INCOMING        OUTGOING                    STEP   MAXIMUM CHANGE MODEL-(CELLID) OR
 OUTER ITERATION STEP       ITERATION  ITERATION       FLAG ITERATIONS        RESIDUAL        RESIDUAL  MAXIMUM CHANGE SUCCESS             MODEL-PACKAGE-(NUMBER)
 ----------------------------------------------------------------------------------------------------------------------------------------------------------------
 Backtracking                       1                     0          0       8.9836853       8.9836853                       *                                   
 Model                              1         50                                                        3.03798011E-02                             1_GWF-(2,42,2)
 Backtracking                       2                     0          0      0.14311102      0.14311102                       *                                   
 Model                              2         21                                                       -4.21860970E-04                             1_GWF-(3,57,8)
 Backtracking                       3                     0          1      0.27575308      0.19940836                                                           
 Model                              3         20                                                        1.68713340E-04                           1_GWF-(1,118,36)
 Backtracking                       4                     0          0      0.12756926      0.12756926                       *                                   
 Model                              4         20                                                        3.45975828E-05                           1_GWF-(1,118,36)
 Backtracking                       5                     0          0  3.96137588E-02  3.96137588E-02                       *                                   
 Model                              5          3                                                        3.54053327E-06       *                   1_GWF-(1,118,36)
 ----------------------------------------------------------------------------------------------------------------------------------------------------------------


 5 CALLS TO NUMERICAL SOLUTION IN TIME STEP 1 STRESS PERIOD 8
 114 TOTAL ITERATIONS
 
    Solving:  Stress period:     9    Time step:     1
 
1
                            STRESS PERIOD NO. 9, LENGTH =   1.000000    
                            -----------------------------------------------
                            NUMBER OF TIME STEPS = 1
                            MULTIPLIER FOR DELT =     1.000
                            INITIAL TIME STEP SIZE =   1.000000    

 SLN_1 OUTER ITERATION SUMMARY
 ----------------------------------------------------------------------------------------------------------------------------------------------------------------
                                OUTER      INNER  BACKTRACK  BACKTRACK        INCOMING        OUTGOING                    STEP   MAXIMUM CHANGE MODEL-(CELLID) OR
 OUTER ITERATION STEP       ITERATION  ITERATION       FLAG ITERATIONS        RESIDUAL        RESIDUAL  MAXIMUM CHANGE SUCCESS             MODEL-PACKAGE-(NUMBER)
 ----------------------------------------------------------------------------------------------------------------------------------------------------------------
 Backtracking                       1                     0          0       20.997062       20.997062                       *                                   
 Model                              1         50                                                       -4.07644882E-02                           1_GWF-(1,105,60)
 Backtracking                       2                     0          0      0.78846494      0.78846494                       *                                   
 Model                              2         32                                                        2.38857888E-03                           1_GWF-(1,118,34)
 Backtracking                       3                     0          0  6.29627579E-02  6.29627579E-02                       *                                   
 Model                              3         21                                                        3.44442138E-04                           1_GWF-(1,118,34)
 Backtracking                       4                     0          1  9.92233624E-02  7.38075418E-02                                                           
 Model                              4         18                                                        1.38237649E-04                           1_GWF-(1,118,34)
 Backtracking                       5                     0          0  5.56608723E-02  5.56608723E-02                       *                                   
 Model                              5          4                                                        2.04628784E-05                           1_GWF-(1,118,34)
 Backtracking                       6                     0          0  7.65833866E-03  7.65833866E-03                       *                                   
 Model                              6          1                                                        4.78056009E-07       *                   1_GWF-(1,118,34)
 ----------------------------------------------------------------------------------------------------------------------------------------------------------------


 6 CALLS TO NUMERICAL SOLUTION IN TIME STEP 1 STRESS PERIOD 9
 126 TOTAL ITERATIONS
 
    Solving:  Stress period:    10    Time step:     1
 
1
                            STRESS PERIOD NO. 10, LENGTH =   1.000000    
                            -----------------------------------------------
                            NUMBER OF TIME STEPS = 1
                            MULTIPLIER FOR DELT =     1.000
                            INITIAL TIME STEP SIZE =   1.000000    

 SLN_1 OUTER ITERATION SUMMARY
 ----------------------------------------------------------------------------------------------------------------------------------------------------------------
                                OUTER      INNER  BACKTRACK  BACKTRACK        INCOMING        OUTGOING                    STEP   MAXIMUM CHANGE MODEL-(CELLID) OR
 OUTER ITERATION STEP       ITERATION  ITERATION       FLAG ITERATIONS        RESIDUAL        RESIDUAL  MAXIMUM CHANGE SUCCESS             MODEL-PACKAGE-(NUMBER)
 ----------------------------------------------------------------------------------------------------------------------------------------------------------------
 Backtracking                       1                     0          0       41.979591       41.979591                       *                                   
 Model                              1         50                                                       -7.39103350E-02                            1_GWF-(1,89,20)
 Backtracking                       2                     0          0       1.5699384       1.5699384                       *                                   
 Model                              2         37                                                        3.90561895E-03                           1_GWF-(1,118,26)
 Backtracking                       3                     0          0      0.13466149      0.13466149                       *                                   
 Model                              3         14                                                        6.00025638E-04                           1_GWF-(1,118,25)
 Backtracking                       4                     0          0      0.12856660      0.12856660                       *                                   
 Model                              4         15                                                        6.14601327E-05                           1_GWF-(1,118,26)
 Backtracking                       5                     0          0  5.60597491E-02  5.60597491E-02                       *                                   
 Model                              5         16                                                        1.81617767E-05                             1_GWF-(3,2,34)
 Backtracking                       6                     0          0  5.22227377E-02  5.22227377E-02                       *                                   
 Model                              6          3                                                        3.11930575E-06       *                    1_GWF-(2,17,47)
 ----------------------------------------------------------------------------------------------------------------------------------------------------------------


 6 CALLS TO NUMERICAL SOLUTION IN TIME STEP 1 STRESS PERIOD 10
 135 TOTAL ITERATIONS
 
    Solving:  Stress period:    11    Time step:     1
 
1
                            STRESS PERIOD NO. 11, LENGTH =   1.000000    
                            -----------------------------------------------
                            NUMBER OF TIME STEPS = 1
                            MULTIPLIER FOR DELT =     1.000
                            INITIAL TIME STEP SIZE =   1.000000    

 SLN_1 OUTER ITERATION SUMMARY
 ----------------------------------------------------------------------------------------------------------------------------------------------------------------
                                OUTER      INNER  BACKTRACK  BACKTRACK        INCOMING        OUTGOING                    STEP   MAXIMUM CHANGE MODEL-(CELLID) OR
 OUTER ITERATION STEP       ITERATION  ITERATION       FLAG ITERATIONS        RESIDUAL        RESIDUAL  MAXIMUM CHANGE SUCCESS             MODEL-PACKAGE-(NUMBER)
 ----------------------------------------------------------------------------------------------------------------------------------------------------------------
 Backtracking                       1                     0          0       53.455015       53.455015                       *                                   
 Model                              1         50                                                       -9.80669250E-02                             1_GWF-(1,89,1)
 Backtracking                       2                     0          0       1.6698661       1.6698661                       *                                   
 Model                              2         33                                                       -2.46046448E-03                           1_GWF-(1,115,47)
 Backtracking                       3                     0          0  5.62050102E-02  5.62050102E-02                       *                                   
 Model                              3         26                                                       -6.75090702E-05                            1_GWF-(1,90,47)
 Backtracking                       4                     0          1      0.11834320  8.49049413E-02                                                           
 Model                              4         18                                                       -3.14736528E-05                            1_GWF-(3,77,17)
 Backtracking                       5                     0          0  5.78521564E-02  5.78521564E-02                       *                                   
 Model                              5          5                                                       -5.29183620E-06       *                    1_GWF-(3,77,17)
 ----------------------------------------------------------------------------------------------------------------------------------------------------------------


 5 CALLS TO NUMERICAL SOLUTION IN TIME STEP 1 STRESS PERIOD 11
 132 TOTAL ITERATIONS
 
    Solving:  Stress period:    12    Time step:     1
 
1
                            STRESS PERIOD NO. 12, LENGTH =   1.000000    
                            -----------------------------------------------
                            NUMBER OF TIME STEPS = 1
                            MULTIPLIER FOR DELT =     1.000
                            INITIAL TIME STEP SIZE =   1.000000    

 SLN_1 OUTER ITERATION SUMMARY
 ----------------------------------------------------------------------------------------------------------------------------------------------------------------
                                OUTER      INNER  BACKTRACK  BACKTRACK        INCOMING        OUTGOING                    STEP   MAXIMUM CHANGE MODEL-(CELLID) OR
 OUTER ITERATION STEP       ITERATION  ITERATION       FLAG ITERATIONS        RESIDUAL        RESIDUAL  MAXIMUM CHANGE SUCCESS             MODEL-PACKAGE-(NUMBER)
 ----------------------------------------------------------------------------------------------------------------------------------------------------------------
 Backtracking                       1                     0          0       52.007725       52.007725                       *                                   
 Model                              1         50                                                           -0.10070526                             1_GWF-(1,77,1)
 Backtracking                       2                     0          0       1.6362833       1.6362833                       *                                   
 Model                              2         49                                                       -2.43074056E-03                           1_GWF-(1,114,47)
 Backtracking                       3                     0          0  5.73478734E-02  5.73478734E-02                       *                                   
 Model                              3         23                                                        1.15031009E-04                             1_GWF-(3,54,7)
 Backtracking                       4                     1          1  6.68823966E-02  5.24367427E-02                                                           
 Model                              4         17                                                        4.71117052E-05                             1_GWF-(3,53,7)
 Backtracking                       5                     0          0  2.88401626E-02  2.88401626E-02                       *                                   
 Model                              5          2                                                       -2.35492806E-06       *                    1_GWF-(1,12,47)
 ----------------------------------------------------------------------------------------------------------------------------------------------------------------


 5 CALLS TO NUMERICAL SOLUTION IN TIME STEP 1 STRESS PERIOD 12
 141 TOTAL ITERATIONS
 
    Solving:  Stress period:    13    Time step:     1
 
1
                            STRESS PERIOD NO. 13, LENGTH =   1.000000    
                            -----------------------------------------------
                            NUMBER OF TIME STEPS = 1
                            MULTIPLIER FOR DELT =     1.000
                            INITIAL TIME STEP SIZE =   1.000000    

 SLN_1 OUTER ITERATION SUMMARY
 ----------------------------------------------------------------------------------------------------------------------------------------------------------------
                                OUTER      INNER  BACKTRACK  BACKTRACK        INCOMING        OUTGOING                    STEP   MAXIMUM CHANGE MODEL-(CELLID) OR
 OUTER ITERATION STEP       ITERATION  ITERATION       FLAG ITERATIONS        RESIDUAL        RESIDUAL  MAXIMUM CHANGE SUCCESS             MODEL-PACKAGE-(NUMBER)
 ----------------------------------------------------------------------------------------------------------------------------------------------------------------
 Backtracking                       1                     0          0       37.984968       37.984968                       *                                   
 Model                              1         50                                                       -8.05974264E-02                             1_GWF-(3,60,2)
 Backtracking                       2                     0          0       1.2119408       1.2119408                       *                                   
 Model                              2         32                                                       -1.77721774E-03                           1_GWF-(1,108,47)
 Backtracking                       3                     0          0  6.03946191E-02  6.03946191E-02                       *                                   
 Model                              3         15                                                        7.95780398E-05                            1_GWF-(1,54,12)
 Backtracking                       4                     0          1      0.10111702  7.35502778E-02                                                           
 Model                              4         13                                                        4.57336694E-05                            1_GWF-(3,51,12)
 Backtracking                       5                     0          0  7.07675422E-02  7.07675422E-02                       *                                   
 Model                              5         12                                                       -1.38922515E-05                           1_GWF-(3,103,60)
 Backtracking                       6                     0          0  3.18962493E-02  3.18962493E-02                       *                                   
 Model                              6          2                                                        1.62897346E-06       *                    1_GWF-(1,29,12)
 ----------------------------------------------------------------------------------------------------------------------------------------------------------------


 6 CALLS TO NUMERICAL SOLUTION IN TIME STEP 1 STRESS PERIOD 13
 124 TOTAL ITERATIONS
 
    Solving:  Stress period:    14    Time step:     1
 
1
                            STRESS PERIOD NO. 14, LENGTH =   1.000000    
                            -----------------------------------------------
                            NUMBER OF TIME STEPS = 1
                            MULTIPLIER FOR DELT =     1.000
                            INITIAL TIME STEP SIZE =   1.000000    

 SLN_1 OUTER ITERATION SUMMARY
 ----------------------------------------------------------------------------------------------------------------------------------------------------------------
                                OUTER      INNER  BACKTRACK  BACKTRACK        INCOMING        OUTGOING                    STEP   MAXIMUM CHANGE MODEL-(CELLID) OR
 OUTER ITERATION STEP       ITERATION  ITERATION       FLAG ITERATIONS        RESIDUAL        RESIDUAL  MAXIMUM CHANGE SUCCESS             MODEL-PACKAGE-(NUMBER)
 ----------------------------------------------------------------------------------------------------------------------------------------------------------------
 Backtracking                       1                     0          0       15.618380       15.618380                       *                                   
 Model                              1         50                                                       -4.21107842E-02                             1_GWF-(3,52,7)
 Backtracking                       2                     0          0      0.42136001      0.42136001                       *                                   
 Model                              2         33                                                       -6.65258299E-04                            1_GWF-(1,97,47)
 Backtracking                       3                     0          0  4.43980264E-02  4.43980264E-02                       *                                   
 Model                              3          8                                                       -1.03701475E-04                           1_GWF-(1,118,47)
 Backtracking                       4                     1          1  5.07405485E-02  4.01857897E-02                                                           
 Model                              4         13                                                        4.70303663E-05                             1_GWF-(3,54,8)
 Backtracking                       5                     0          0  3.21295798E-02  3.21295798E-02                       *                                   
 Model                              5          3                                                       -6.53721784E-06       *                   1_GWF-(1,118,47)
 ----------------------------------------------------------------------------------------------------------------------------------------------------------------


 5 CALLS TO NUMERICAL SOLUTION IN TIME STEP 1 STRESS PERIOD 14
 107 TOTAL ITERATIONS
 
    Solving:  Stress period:    15    Time step:     1
 
1
                            STRESS PERIOD NO. 15, LENGTH =   1.000000    
                            -----------------------------------------------
                            NUMBER OF TIME STEPS = 1
                            MULTIPLIER FOR DELT =     1.000
                            INITIAL TIME STEP SIZE =   1.000000    

 SLN_1 OUTER ITERATION SUMMARY
 ----------------------------------------------------------------------------------------------------------------------------------------------------------------
                                OUTER      INNER  BACKTRACK  BACKTRACK        INCOMING        OUTGOING                    STEP   MAXIMUM CHANGE MODEL-(CELLID) OR
 OUTER ITERATION STEP       ITERATION  ITERATION       FLAG ITERATIONS        RESIDUAL        RESIDUAL  MAXIMUM CHANGE SUCCESS             MODEL-PACKAGE-(NUMBER)
 ----------------------------------------------------------------------------------------------------------------------------------------------------------------
 Backtracking                       1                     0          0       13.912758       13.912758                       *                                   
 Model                              1         50                                                        2.99982074E-02                           1_GWF-(1,111,57)
 Backtracking                       2                     0          0      0.52723551      0.52723551                       *                                   
 Model                              2         30                                                        7.40464402E-04                           1_GWF-(1,117,47)
 Backtracking                       3                     0          0  1.64680789E-02  1.64680789E-02                       *                                   
 Model                              3         10                                                        2.25614758E-05                            1_GWF-(1,93,47)
 Backtracking                       4                     0          1  3.07279420E-02  2.17057786E-02                                                           
 Model                              4          3                                                        5.28362269E-06       *                   1_GWF-(1,118,47)
 ----------------------------------------------------------------------------------------------------------------------------------------------------------------


 4 CALLS TO NUMERICAL SOLUTION IN TIME STEP 1 STRESS PERIOD 15
 93 TOTAL ITERATIONS
 
    Solving:  Stress period:    16    Time step:     1
 
1
                            STRESS PERIOD NO. 16, LENGTH =   1.000000    
                            -----------------------------------------------
                            NUMBER OF TIME STEPS = 1
                            MULTIPLIER FOR DELT =     1.000
                            INITIAL TIME STEP SIZE =   1.000000    

 SLN_1 OUTER ITERATION SUMMARY
 ----------------------------------------------------------------------------------------------------------------------------------------------------------------
                                OUTER      INNER  BACKTRACK  BACKTRACK        INCOMING        OUTGOING                    STEP   MAXIMUM CHANGE MODEL-(CELLID) OR
 OUTER ITERATION STEP       ITERATION  ITERATION       FLAG ITERATIONS        RESIDUAL        RESIDUAL  MAXIMUM CHANGE SUCCESS             MODEL-PACKAGE-(NUMBER)
 ----------------------------------------------------------------------------------------------------------------------------------------------------------------
 Backtracking                       1                     0          0       35.366353       35.366353                       *                                   
 Model                              1         50                                                        6.20129897E-02                            1_GWF-(1,95,60)
 Backtracking                       2                     0          0       1.3133793       1.3133793                       *                                   
 Model                              2         32                                                        1.80759810E-03                           1_GWF-(1,114,47)
 Backtracking                       3                     0          0  4.27999026E-02  4.27999026E-02                       *                                   
 Model                              3         16                                                       -5.07166974E-05                             1_GWF-(3,2,33)
 Backtracking                       4                     0          1  7.62318798E-02  5.45578356E-02                                                           
 Model                              4         11                                                        1.50274551E-05                           1_GWF-(1,107,47)
 Backtracking                       5                     0          0  3.36181589E-02  3.36181589E-02                       *                                   
 Model                              5          8                                                        5.57206329E-06       *                   1_GWF-(3,111,57)
 ----------------------------------------------------------------------------------------------------------------------------------------------------------------


 5 CALLS TO NUMERICAL SOLUTION IN TIME STEP 1 STRESS PERIOD 16
 117 TOTAL ITERATIONS
 
    Solving:  Stress period:    17    Time step:     1
 
1
                            STRESS PERIOD NO. 17, LENGTH =   1.000000    
                            -----------------------------------------------
                            NUMBER OF TIME STEPS = 1
                            MULTIPLIER FOR DELT =     1.000
                            INITIAL TIME STEP SIZE =   1.000000    

 SLN_1 OUTER ITERATION SUMMARY
 ----------------------------------------------------------------------------------------------------------------------------------------------------------------
                                OUTER      INNER  BACKTRACK  BACKTRACK        INCOMING        OUTGOING                    STEP   MAXIMUM CHANGE MODEL-(CELLID) OR
 OUTER ITERATION STEP       ITERATION  ITERATION       FLAG ITERATIONS        RESIDUAL        RESIDUAL  MAXIMUM CHANGE SUCCESS             MODEL-PACKAGE-(NUMBER)
 ----------------------------------------------------------------------------------------------------------------------------------------------------------------
 Backtracking                       1                     0          0       48.088657       48.088657                       *                                   
 Model                              1         50                                                        8.62837772E-02                             1_GWF-(1,94,1)
 Backtracking                       2                     0          0       1.7374442       1.7374442                       *                                   
 Model                              2         29                                                        2.38240500E-03                           1_GWF-(1,113,47)
 Backtracking                       3                     0          0  7.33429819E-02  7.33429819E-02                       *                                   
 Model                              3         18                                                       -1.30140379E-04                             1_GWF-(3,2,34)
 Backtracking                       4                     0          1      0.11916079  8.80468354E-02                                                           
 Model                              4         18                                                       -5.41045457E-05                             1_GWF-(3,1,36)
 Backtracking                       5                     0          0  6.91633110E-02  6.91633110E-02                       *                                   
 Model                              5          6                                                        7.70465491E-06       *                   1_GWF-(3,103,60)
 ----------------------------------------------------------------------------------------------------------------------------------------------------------------


 5 CALLS TO NUMERICAL SOLUTION IN TIME STEP 1 STRESS PERIOD 17
 121 TOTAL ITERATIONS
 
    Solving:  Stress period:    18    Time step:     1
 
1
                            STRESS PERIOD NO. 18, LENGTH =   1.000000    
                            -----------------------------------------------
                            NUMBER OF TIME STEPS = 1
                            MULTIPLIER FOR DELT =     1.000
                            INITIAL TIME STEP SIZE =   1.000000    

 SLN_1 OUTER ITERATION SUMMARY
 ----------------------------------------------------------------------------------------------------------------------------------------------------------------
                                OUTER      INNER  BACKTRACK  BACKTRACK        INCOMING        OUTGOING                    STEP   MAXIMUM CHANGE MODEL-(CELLID) OR
 OUTER ITERATION STEP       ITERATION  ITERATION       FLAG ITERATIONS        RESIDUAL        RESIDUAL  MAXIMUM CHANGE SUCCESS             MODEL-PACKAGE-(NUMBER)
 ----------------------------------------------------------------------------------------------------------------------------------------------------------------
 Backtracking                       1                     0          0       47.959665       47.959665                       *                                   
 Model                              1         50                                                        9.10835366E-02                             1_GWF-(1,78,1)
 Backtracking                       2                     0          0       1.6602892       1.6602892                       *                                   
 Model                              2         39                                                        2.26353773E-03                           1_GWF-(1,110,47)
 Backtracking                       3                     0          0  6.71535051E-02  6.71535051E-02                       *                                   
 Model                              3         23                                                       -1.38994629E-04                             1_GWF-(3,2,34)
 Backtracking                       4                     0          1      0.10975050  8.05656270E-02                                                           
 Model                              4         20                                                       -5.49937699E-05                             1_GWF-(3,2,34)
 Backtracking                       5                     0          0  5.67134094E-02  5.67134094E-02                       *                                   
 Model                              5          5                                                        5.08516412E-06       *                    1_GWF-(3,71,18)
 ----------------------------------------------------------------------------------------------------------------------------------------------------------------


 5 CALLS TO NUMERICAL SOLUTION IN TIME STEP 1 STRESS PERIOD 18
 137 TOTAL ITERATIONS
 
    Solving:  Stress period:    19    Time step:     1
 
1
                            STRESS PERIOD NO. 19, LENGTH =   1.000000    
                            -----------------------------------------------
                            NUMBER OF TIME STEPS = 1
                            MULTIPLIER FOR DELT =     1.000
                            INITIAL TIME STEP SIZE =   1.000000    

 SLN_1 OUTER ITERATION SUMMARY
 ----------------------------------------------------------------------------------------------------------------------------------------------------------------
                                OUTER      INNER  BACKTRACK  BACKTRACK        INCOMING        OUTGOING                    STEP   MAXIMUM CHANGE MODEL-(CELLID) OR
 OUTER ITERATION STEP       ITERATION  ITERATION       FLAG ITERATIONS        RESIDUAL        RESIDUAL  MAXIMUM CHANGE SUCCESS             MODEL-PACKAGE-(NUMBER)
 ----------------------------------------------------------------------------------------------------------------------------------------------------------------
 Backtracking                       1                     0          0       35.088687       35.088687                       *                                   
 Model                              1         50                                                        7.29595216E-02                             1_GWF-(3,60,2)
 Backtracking                       2                     0          0       1.1682482       1.1682482                       *                                   
 Model                              2         40                                                        2.57793302E-03                           1_GWF-(1,118,22)
 Backtracking                       3                     0          0  4.60409587E-02  4.60409587E-02                       *                                   
 Model                              3         24                                                       -9.61277965E-05                             1_GWF-(3,54,8)
 Backtracking                       4                     0          1  7.13902690E-02  5.27177107E-02                                                           
 Model                              4         12                                                       -2.86954391E-05                             1_GWF-(3,2,34)
 Backtracking                       5                     0          0  4.25101177E-02  4.25101177E-02                       *                                   
 Model                              5          4                                                        2.75056876E-06       *                    1_GWF-(1,12,47)
 ----------------------------------------------------------------------------------------------------------------------------------------------------------------


 5 CALLS TO NUMERICAL SOLUTION IN TIME STEP 1 STRESS PERIOD 19
 130 TOTAL ITERATIONS
 
    Solving:  Stress period:    20    Time step:     1
 
1
                            STRESS PERIOD NO. 20, LENGTH =   1.000000    
                            -----------------------------------------------
                            NUMBER OF TIME STEPS = 1
                            MULTIPLIER FOR DELT =     1.000
                            INITIAL TIME STEP SIZE =   1.000000    

 SLN_1 OUTER ITERATION SUMMARY
 ----------------------------------------------------------------------------------------------------------------------------------------------------------------
                                OUTER      INNER  BACKTRACK  BACKTRACK        INCOMING        OUTGOING                    STEP   MAXIMUM CHANGE MODEL-(CELLID) OR
 OUTER ITERATION STEP       ITERATION  ITERATION       FLAG ITERATIONS        RESIDUAL        RESIDUAL  MAXIMUM CHANGE SUCCESS             MODEL-PACKAGE-(NUMBER)
 ----------------------------------------------------------------------------------------------------------------------------------------------------------------
 Backtracking                       1                     0          0       13.475752       13.475752                       *                                   
 Model                              1         50                                                        3.56474841E-02                             1_GWF-(3,50,9)
 Backtracking                       2                     0          0      0.32780301      0.32780301                       *                                   
 Model                              2         15                                                        4.37355799E-04                            1_GWF-(1,99,47)
 Backtracking                       3                     0          0  7.33477754E-02  7.33477754E-02                       *                                   
 Model                              3          9                                                        6.48586984E-05                           1_GWF-(3,104,60)
 Backtracking                       4                     1          1      0.10336018  7.64030787E-02                                                           
 Model                              4         16                                                        4.49454747E-05                            1_GWF-(3,71,60)
 Backtracking                       5                     0          1      0.15543633      0.12625532                                                           
 Model                              5         17                                                        2.87726170E-05                           1_GWF-(3,106,32)
 Backtracking                       6                     0          0      0.12200794      0.12200794                       *                                   
 Model                              6          4                                                        4.04077240E-06       *                   1_GWF-(2,107,33)
 ----------------------------------------------------------------------------------------------------------------------------------------------------------------


 6 CALLS TO NUMERICAL SOLUTION IN TIME STEP 1 STRESS PERIOD 20
 111 TOTAL ITERATIONS
 
    Solving:  Stress period:    21    Time step:     1
 
1
                            STRESS PERIOD NO. 21, LENGTH =   1.000000    
                            -----------------------------------------------
                            NUMBER OF TIME STEPS = 1
                            MULTIPLIER FOR DELT =     1.000
                            INITIAL TIME STEP SIZE =   1.000000    

 SLN_1 OUTER ITERATION SUMMARY
 ----------------------------------------------------------------------------------------------------------------------------------------------------------------
                                OUTER      INNER  BACKTRACK  BACKTRACK        INCOMING        OUTGOING                    STEP   MAXIMUM CHANGE MODEL-(CELLID) OR
 OUTER ITERATION STEP       ITERATION  ITERATION       FLAG ITERATIONS        RESIDUAL        RESIDUAL  MAXIMUM CHANGE SUCCESS             MODEL-PACKAGE-(NUMBER)
 ----------------------------------------------------------------------------------------------------------------------------------------------------------------
 Backtracking                       1                     0          0       15.266363       15.266363                       *                                   
 Model                              1         50                                                       -3.10418512E-02                           1_GWF-(1,110,57)
 Backtracking                       2                     0          0      0.58156958      0.58156958                       *                                   
 Model                              2         41                                                        1.88019923E-03                           1_GWF-(1,118,29)
 Backtracking                       3                     0          0  4.41555909E-02  4.41555909E-02                       *                                   
 Model                              3         19                                                        2.81071940E-04                           1_GWF-(1,118,29)
 Backtracking                       4                     0          0  3.21687959E-02  3.21687959E-02                       *                                   
 Model                              4          4                                                        4.00740101E-05                           1_GWF-(1,118,29)
 Backtracking                       5                     0          0  8.29183076E-03  8.29183076E-03                       *                                   
 Model                              5          3                                                        6.38208505E-06       *                   1_GWF-(1,118,29)
 ----------------------------------------------------------------------------------------------------------------------------------------------------------------


 5 CALLS TO NUMERICAL SOLUTION IN TIME STEP 1 STRESS PERIOD 21
 117 TOTAL ITERATIONS
 
    Solving:  Stress period:    22    Time step:     1
 
1
                            STRESS PERIOD NO. 22, LENGTH =   1.000000    
                            -----------------------------------------------
                            NUMBER OF TIME STEPS = 1
                            MULTIPLIER FOR DELT =     1.000
                            INITIAL TIME STEP SIZE =   1.000000    

 SLN_1 OUTER ITERATION SUMMARY
 ----------------------------------------------------------------------------------------------------------------------------------------------------------------
                                OUTER      INNER  BACKTRACK  BACKTRACK        INCOMING        OUTGOING                    STEP   MAXIMUM CHANGE MODEL-(CELLID) OR
 OUTER ITERATION STEP       ITERATION  ITERATION       FLAG ITERATIONS        RESIDUAL        RESIDUAL  MAXIMUM CHANGE SUCCESS             MODEL-PACKAGE-(NUMBER)
 ----------------------------------------------------------------------------------------------------------------------------------------------------------------
 Backtracking                       1                     0          0       37.330082       37.330082                       *                                   
 Model                              1         50                                                       -6.46036010E-02                            1_GWF-(1,93,26)
 Backtracking                       2                     0          0       1.4181161       1.4181161                       *                                   
 Model                              2         38                                                        3.79811401E-03                           1_GWF-(1,118,21)
 Backtracking                       3                     0          0      0.12110631      0.12110631                       *                                   
 Model                              3         31                                                        5.57612231E-04                           1_GWF-(1,118,21)
 Backtracking                       4                     0          0  8.61144211E-02  8.61144211E-02                       *                                   
 Model                              4         13                                                        8.61539150E-05                           1_GWF-(1,118,21)
 Backtracking                       5                     0          0  3.00099915E-02  3.00099915E-02                       *                                   
 Model                              5          3                                                        1.13717406E-05                           1_GWF-(1,118,22)
 Backtracking                       6                     0          0  5.16496804E-03  5.16496804E-03                       *                                   
 Model                              6          1                                                       -2.80037241E-07       *                   1_GWF-(3,109,23)
 ----------------------------------------------------------------------------------------------------------------------------------------------------------------


 6 CALLS TO NUMERICAL SOLUTION IN TIME STEP 1 STRESS PERIOD 22
 136 TOTAL ITERATIONS
 
    Solving:  Stress period:    23    Time step:     1
 
1
                            STRESS PERIOD NO. 23, LENGTH =   1.000000    
                            -----------------------------------------------
                            NUMBER OF TIME STEPS = 1
                            MULTIPLIER FOR DELT =     1.000
                            INITIAL TIME STEP SIZE =   1.000000    

 SLN_1 OUTER ITERATION SUMMARY
 ----------------------------------------------------------------------------------------------------------------------------------------------------------------
                                OUTER      INNER  BACKTRACK  BACKTRACK        INCOMING        OUTGOING                    STEP   MAXIMUM CHANGE MODEL-(CELLID) OR
 OUTER ITERATION STEP       ITERATION  ITERATION       FLAG ITERATIONS        RESIDUAL        RESIDUAL  MAXIMUM CHANGE SUCCESS             MODEL-PACKAGE-(NUMBER)
 ----------------------------------------------------------------------------------------------------------------------------------------------------------------
 Backtracking                       1                     0          0       50.751830       50.751830                       *                                   
 Model                              1         50                                                       -9.16995742E-02                             1_GWF-(1,88,1)
 Backtracking                       2                     0          0       1.6321650       1.6321650                       *                                   
 Model                              2         50                                                       -2.46598701E-03                           1_GWF-(1,114,47)
 Backtracking                       3                     0          0  6.83980116E-02  6.83980116E-02                       *                                   
 Model                              3         15                                                        1.58108100E-04                             1_GWF-(3,53,8)
 Backtracking                       4                     1          1  8.75899231E-02  6.74631347E-02                                                           
 Model                              4         18                                                        7.92826219E-05                             1_GWF-(3,52,9)
 Backtracking                       5                     0          0  4.05834322E-02  4.05834322E-02                       *                                   
 Model                              5          4                                                        3.61982536E-06       *                     1_GWF-(2,15,1)
 ----------------------------------------------------------------------------------------------------------------------------------------------------------------


 5 CALLS TO NUMERICAL SOLUTION IN TIME STEP 1 STRESS PERIOD 23
 137 TOTAL ITERATIONS
 
    Solving:  Stress period:    24    Time step:     1
 
1
                            STRESS PERIOD NO. 24, LENGTH =   1.000000    
                            -----------------------------------------------
                            NUMBER OF TIME STEPS = 1
                            MULTIPLIER FOR DELT =     1.000
                            INITIAL TIME STEP SIZE =   1.000000    

 SLN_1 OUTER ITERATION SUMMARY
 ----------------------------------------------------------------------------------------------------------------------------------------------------------------
                                OUTER      INNER  BACKTRACK  BACKTRACK        INCOMING        OUTGOING                    STEP   MAXIMUM CHANGE MODEL-(CELLID) OR
 OUTER ITERATION STEP       ITERATION  ITERATION       FLAG ITERATIONS        RESIDUAL        RESIDUAL  MAXIMUM CHANGE SUCCESS             MODEL-PACKAGE-(NUMBER)
 ----------------------------------------------------------------------------------------------------------------------------------------------------------------
 Backtracking                       1                     0          0       51.487392       51.487392                       *                                   
 Model                              1         50                                                           -0.10252377                             1_GWF-(3,54,8)
 Backtracking                       2                     0          0       3.0210461       3.0210461                       *                                   
 Model                              2         50                                                        5.27898001E-03                            1_GWF-(3,52,10)
 Backtracking                       3                     0          0      0.28390901      0.28390901                       *                                   
 Model                              3         20                                                        7.06247191E-04                             1_GWF-(3,1,32)
 Backtracking                       4                     0          0      0.30579622      0.30579622                       *                                   
 Model                              4         23                                                        1.66313394E-04                            1_GWF-(3,52,10)
 Backtracking                       5                     0          0      0.21484920      0.21484920                       *                                   
 Model                              5         12                                                        2.64507529E-05                            1_GWF-(3,28,11)
 Backtracking                       6                     0          0  6.74633894E-02  6.74633894E-02                       *                                   
 Model                              6         16                                                        3.16495674E-05                             1_GWF-(3,3,56)
 Backtracking                       7                     0          0  6.90887430E-02  6.90887430E-02                       *                                   
 Model                              7          4                                                        3.91118486E-06       *                    1_GWF-(1,18,17)
 ----------------------------------------------------------------------------------------------------------------------------------------------------------------


 7 CALLS TO NUMERICAL SOLUTION IN TIME STEP 1 STRESS PERIOD 24
 175 TOTAL ITERATIONS
 
    Solving:  Stress period:    25    Time step:     1
 
1
                            STRESS PERIOD NO. 25, LENGTH =   1.000000    
                            -----------------------------------------------
                            NUMBER OF TIME STEPS = 1
                            MULTIPLIER FOR DELT =     1.000
                            INITIAL TIME STEP SIZE =   1.000000    

 SLN_1 OUTER ITERATION SUMMARY
 ----------------------------------------------------------------------------------------------------------------------------------------------------------------
                                OUTER      INNER  BACKTRACK  BACKTRACK        INCOMING        OUTGOING                    STEP   MAXIMUM CHANGE MODEL-(CELLID) OR
 OUTER ITERATION STEP       ITERATION  ITERATION       FLAG ITERATIONS        RESIDUAL        RESIDUAL  MAXIMUM CHANGE SUCCESS             MODEL-PACKAGE-(NUMBER)
 ----------------------------------------------------------------------------------------------------------------------------------------------------------------
 Backtracking                       1                     0          0       39.331340       39.331340                       *                                   
 Model                              1         50                                                       -8.31874868E-02                             1_GWF-(3,53,7)
 Backtracking                       2                     0          0       1.2612108       1.2612108                       *                                   
 Model                              2         41                                                       -1.87931330E-03                           1_GWF-(1,108,47)
 Backtracking                       3                     0          0  5.57663396E-02  5.57663396E-02                       *                                   
 Model                              3         18                                                        1.21986211E-04                             1_GWF-(3,54,8)
 Backtracking                       4                     0          1  9.41224131E-02  6.82942805E-02                                                           
 Model                              4         18                                                        5.82886821E-05                             1_GWF-(3,53,8)
 Backtracking                       5                     0          0  4.63485917E-02  4.63485917E-02                       *                                   
 Model                              5          4                                                       -3.08895094E-06       *                    1_GWF-(3,70,18)
 ----------------------------------------------------------------------------------------------------------------------------------------------------------------


 5 CALLS TO NUMERICAL SOLUTION IN TIME STEP 1 STRESS PERIOD 25
 131 TOTAL ITERATIONS


 Solution SLN_1 summary
 ----------------------------------------------------------------------
 Total formulate time:  .4949080000000040 seconds
 Total solution time:   2.831226999999997 seconds


 MEMORY MANAGER TOTAL STORAGE BY DATA TYPE, IN MEGABYTES
 -------------------------------
                    ALLOCATED   
 DATA TYPE           MEMORY     
 -------------------------------
 Character        1.21330000E-02
 Logical          4.40000000E-05
 Integer          5.6056600     
 Real             10.576256     
 -------------------------------
 Total            16.194093     
 -------------------------------


 
 Run end date and time (yyyy/mm/dd hh:mm:ss): 2023/09/23 12:55:54
 Elapsed run time:  4.122 Seconds

WARNING REPORT:

  1. NONLINEAR BLOCK VARIABLE 'OUTER_HCLOSE' IN FILE 'freyberg6.ims' WAS
     DEPRECATED IN VERSION 6.1.1. SETTING OUTER_DVCLOSE TO OUTER_HCLOSE VALUE.
  2. LINEAR BLOCK VARIABLE 'INNER_HCLOSE' IN FILE 'freyberg6.ims' WAS
     DEPRECATED IN VERSION 6.1.1. SETTING INNER_DVCLOSE TO INNER_HCLOSE VALUE.
 Normal termination of simulation.
